13
CC=C=CC
C -1.1803 -2.2753 1.3328
C -0.0146 -1.4421 0.9169
C -0.0837 -0.3999 0.1418
C -0.1547 0.6422 -0.6331
C -1.3918 1.4383 -0.8817
H -2.1187 -1.9071 0.9059
H -1.0364 -3.3094 1.0054
H -1.2736 -2.2699 2.4230
H 0.9585 -1.7378 1.2979
H 0.7467 0.9669 -1.1447
H -1.2358 2.4770 -0.5752
H -1.6350 1.4277 -1.9485
H -2.2503 1.0423 -0.3297
