18
C/C=C/CCC
C -2.7264 -2.2627 0.1901
C -1.9873 -1.1529 -0.4840
C -0.6541 -1.1236 -0.6360
C 0.0861 -0.0110 -1.3245
C 0.9762 0.8001 -0.3790
C 2.1456 0.0068 0.1869
H -3.4407 -2.7116 -0.5067
H -2.0556 -3.0508 0.5465
H -3.2814 -1.8727 1.0487
H -2.5937 -0.3328 -0.8622
H -0.0543 -1.9510 -0.2625
H -0.6246 0.6741 -1.8034
H 0.6928 -0.4395 -2.1312
H 0.3786 1.2051 0.4466
H 1.3762 1.6592 -0.9312
H 2.7878 0.6609 0.7856
H 2.7541 -0.4219 -0.6157
H 1.8045 -0.8061 0.8348
