20
CCCC(C)C
C -2.1986 0.4816 0.0002
C -1.6139 -0.6210 -0.8684
C -1.0388 -1.7935 -0.0676
C 0.1064 -1.4450 0.9018
C 0.5470 -2.7042 1.6541
C 1.3072 -0.8243 0.1872
H -1.4227 0.9892 0.5805
H -2.6875 1.2340 -0.6271
H -2.9453 0.0818 0.6934
H -0.8518 -0.2001 -1.5330
H -2.4080 -1.0079 -1.5188
H -0.6908 -2.5534 -0.7795
H -1.8555 -2.2583 0.5002
H -0.2582 -0.7295 1.6483
H 0.9363 -3.4629 0.9667
H 1.3331 -2.4691 2.3795
H -0.2925 -3.1427 2.2039
H 1.6763 -1.4783 -0.6101
H 1.0511 0.1430 -0.2553
H 2.1299 -0.6511 0.8895
