13
C=C=C(C)C
C 1.2400 0.7733 -0.2476
C 0.1394 0.6937 0.4349
C -0.9672 0.6136 1.1212
C -0.9927 0.1675 2.5555
C -2.3049 0.9612 0.5324
H 1.5986 -0.0756 -0.8178
H 1.8179 1.6900 -0.2583
H 0.0110 -0.0703 2.9240
H -1.4063 0.9560 3.1925
H -1.6117 -0.7289 2.6647
H -2.2179 1.2779 -0.5126
H -2.9728 0.0944 0.5661
H -2.7673 1.7793 1.0939
