20
CCC(C)(C)C
C 1.0823 0.6658 1.5837
C 1.5098 0.4405 0.1384
C 0.5126 -0.3530 -0.7447
C 1.1149 -0.4772 -2.1579
C -0.8367 0.3766 -0.8515
C 0.2805 -1.7670 -0.1869
H 1.8553 1.2329 2.1132
H 0.9463 -0.2789 2.1172
H 0.1543 1.2407 1.6461
H 2.4771 -0.0788 0.1477
H 1.6949 1.4220 -0.3175
H 2.0753 -1.0046 -2.1338
H 0.4481 -1.0323 -2.8274
H 1.2862 0.5094 -2.6032
H -0.7028 1.4049 -1.2051
H -1.5048 -0.1324 -1.5559
H -1.3542 0.4161 0.1125
H 1.2285 -2.3005 -0.0563
H -0.3436 -2.3603 -0.8652
H -0.2291 -1.7427 0.7818
