26
CCCCCCCC
C 1.5609 2.0720 -1.6279
C 0.4697 1.4689 -2.4952
C 0.0592 0.0472 -2.1001
C -0.5802 -0.0691 -0.7112
C 0.4156 -0.5052 0.3680
C -0.1761 -0.4898 1.7815
C -1.3866 -1.3990 2.0067
C -1.0982 -2.8697 1.7497
H 1.2025 2.2618 -0.6120
H 1.8845 3.0310 -2.0453
H 2.4338 1.4140 -1.5768
H 0.8236 1.4474 -3.5331
H -0.4086 2.1251 -2.4786
H 0.9148 -0.6322 -2.1928
H -0.6799 -0.2880 -2.8394
H -1.0645 0.8734 -0.4306
H -1.3731 -0.8241 -0.7728
H 1.2865 0.1582 0.3643
H 0.7974 -1.5057 0.1335
H 0.6138 -0.7708 2.4894
H -0.4630 0.5387 2.0341
H -1.7122 -1.2854 3.0479
H -2.2283 -1.0761 1.3845
H -0.2451 -3.2127 2.3434
H -1.9673 -3.4762 2.0240
H -0.8840 -3.0578 0.6936
