17
CCCC(=O)OC
C 1.8988 1.9326 1.2884
C 0.3788 2.0033 1.3192
C -0.2709 1.1209 0.2591
C -0.0758 -0.3487 0.5350
O 0.6630 -1.0765 -0.1140
O -0.8325 -0.7394 1.5971
C -0.6977 -2.1222 1.9267
H 2.3227 2.6168 2.0303
H 2.2852 2.2181 0.3048
H 2.2560 0.9243 1.5198
H 0.0732 3.0422 1.1490
H 0.0266 1.7246 2.3190
H 0.1342 1.3444 -0.7346
H -1.3484 1.3161 0.2060
H 0.3364 -2.3516 2.2024
H -1.3392 -2.3293 2.7877
H -1.0256 -2.7493 1.0917
