15
CCNC(C)=O
C 2.3960 1.0838 1.2504
C 1.2613 0.0761 1.2061
N 1.0189 -0.3984 -0.1400
C 0.2328 0.3043 -1.0245
C 0.1552 -0.3067 -2.3979
O -0.3499 1.3461 -0.7430
H 3.3210 0.6475 0.8590
H 2.5777 1.4087 2.2793
H 2.1642 1.9681 0.6479
H 1.5079 -0.7970 1.8183
H 0.3443 0.5256 1.6016
H 1.5695 -1.1759 -0.4792
H 0.5156 -1.3392 -2.4017
H -0.8867 -0.3080 -2.7303
H 0.7622 0.2854 -3.0876
