24
O=C(c1ccccc1)c1ccccc1
O 1.4941 0.0288 2.2447
C 0.8368 -0.0295 1.2085
C 0.8672 1.1168 0.2651
C -0.2664 1.5025 -0.4609
C -0.1987 2.5947 -1.3286
C 0.9925 3.3085 -1.4631
C 2.1169 2.9397 -0.7249
C 2.0539 1.8491 0.1436
C 0.0306 -1.2447 0.9287
C -0.1206 -1.7444 -0.3707
C -0.8772 -2.8977 -0.5890
C -1.4716 -3.5585 0.4864
C -1.3046 -3.0751 1.7840
C -0.5492 -1.9231 2.0071
H -1.2109 0.9766 -0.3485
H -1.0779 2.8963 -1.8928
H 1.0417 4.1615 -2.1357
H 3.0409 3.5047 -0.8195
H 2.9297 1.5709 0.7267
H 0.3580 -1.2598 -1.2177
H -0.9953 -3.2878 -1.5971
H -2.0564 -4.4591 0.3147
H -1.7563 -3.5981 2.6233
H -0.4114 -1.5550 3.0219
