15
CC(=O)N(C)C
C -0.4247 -0.6968 -1.8976
C -0.2295 0.2127 -0.7106
O -0.2256 1.4342 -0.8669
N -0.0664 -0.3900 0.5311
C 0.1353 -1.8177 0.7238
C 0.2348 0.4574 1.6732
H 0.4444 -1.3474 -2.0252
H -0.5309 -0.0915 -2.8032
H -1.3365 -1.2869 -1.7745
H 1.2109 -2.0148 0.7540
H -0.3199 -2.1216 1.6710
H -0.3118 -2.4091 -0.0768
H 1.3120 0.4196 1.8616
H -0.0584 1.4962 1.4997
H -0.3042 0.0846 2.5491
