15
Cc1ccccc1
C 0.6018 -1.4925 -1.0173
C 0.4843 -0.1104 -0.4468
C 0.1264 0.0754 0.8943
C -0.0136 1.3623 1.4169
C 0.1926 2.4733 0.6014
C 0.5347 2.2984 -0.7382
C 0.6750 1.0121 -1.2620
H 1.3366 -1.5190 -1.8288
H -0.3671 -1.8204 -1.4062
H 0.9360 -2.2031 -0.2540
H -0.0448 -0.7823 1.5407
H -0.2865 1.4973 2.4601
H 0.0826 3.4748 1.0084
H 0.6896 3.1640 -1.3768
H 0.9351 0.8909 -2.3110
