13
CC=C=CC
C -1.9316 -0.8948 1.9100
C -1.5769 -1.7609 0.7481
C -0.7749 -1.4194 -0.2171
C 0.0277 -1.0762 -1.1813
C 1.0486 0.0085 -1.0970
H -3.0126 -0.7271 1.9351
H -1.6380 -1.3835 2.8440
H -1.4339 0.0790 1.8607
H -2.0278 -2.7486 0.7189
H -0.0412 -1.6105 -2.1245
H 0.8482 0.7703 -1.8564
H 2.0465 -0.4024 -1.2774
H 1.0491 0.4936 -0.1155
