16
OCCCCO
O 1.9653 2.0653 -1.9063
C 0.6137 1.7140 -1.6557
C 0.2909 0.3233 -2.1939
C 0.7680 -0.8420 -1.3140
C 2.2811 -0.9951 -1.2331
O 2.8392 0.0362 -0.4259
H 2.5196 1.4665 -1.3602
H -0.0079 2.4548 -2.1686
H 0.4117 1.7942 -0.5827
H -0.7992 0.2392 -2.2828
H 0.7102 0.2079 -3.2006
H 0.3515 -0.7218 -0.3067
H 0.3520 -1.7668 -1.7314
H 2.7375 -0.9437 -2.2264
H 2.5487 -1.9585 -0.7871
H 2.6401 -0.1886 0.5016
