14
O=[N+]([O-])c1ccccc1
O -1.9065 -1.2160 1.3924
N -1.8298 -0.9817 0.1776
O -2.5723 -1.4792 -0.6813
C -0.7883 -0.0514 -0.2749
C -0.6652 0.2425 -1.6398
C 0.3271 1.1279 -2.0640
C 1.1875 1.7134 -1.1333
C 1.0623 1.4185 0.2256
C 0.0738 0.5346 0.6619
H -1.3276 -0.2054 -2.3776
H 0.4308 1.3624 -3.1212
H 1.9595 2.4029 -1.4687
H 1.7363 1.8786 0.9449
H -0.0106 0.3153 1.7242
