24
CC(C)(C)c1ccccc1
C 1.4420 -1.3137 0.4465
C -0.0715 -1.2232 0.1468
C -0.3004 -1.8597 -1.2412
C -0.7996 -2.0641 1.2176
C -0.6224 0.2135 0.1544
C -1.9879 0.4485 -0.1033
C -2.5203 1.7409 -0.1039
C -1.6992 2.8323 0.1535
C -0.3477 2.6291 0.4110
C 0.1845 1.3349 0.4114
H 1.7864 -2.3548 0.4298
H 2.0340 -0.7672 -0.2968
H 1.6819 -0.9114 1.4376
H 0.1794 -1.2685 -2.0302
H 0.1149 -2.8734 -1.2846
H -1.3642 -1.9390 -1.4906
H -0.6822 -1.6214 2.2138
H -0.4011 -3.0847 1.2570
H -1.8738 -2.1477 1.0195
H -2.6618 -0.3802 -0.3090
H -3.5775 1.8910 -0.3060
H -2.1103 3.8378 0.1537
H 0.2993 3.4789 0.6130
H 1.2460 1.2339 0.6185
