14
O=C=Nc1ccccc1
O 3.5131 2.3388 1.4071
C 2.3745 2.4126 1.6926
N 1.2394 2.4931 1.9839
C 0.4502 1.5890 1.2546
C 0.1829 0.3095 1.7598
C -0.6260 -0.5799 1.0492
C -1.1876 -0.1918 -0.1662
C -0.9485 1.0866 -0.6678
C -0.1394 1.9753 0.0434
H 0.6044 0.0030 2.7141
H -0.8222 -1.5725 1.4469
H -1.8194 -0.8832 -0.7186
H -1.3962 1.3941 -1.6096
H 0.0292 2.9754 -0.3485
