19
c1ccc2c(c1)CCC2
C 1.5707 -0.7106 -2.2056
C 1.2277 0.2162 -1.2082
C 0.3774 -0.1465 -0.1614
C -0.1256 -1.4361 -0.1416
C 0.2162 -2.3597 -1.1356
C 1.0682 -2.0132 -2.1702
C -0.4129 -3.6903 -0.8647
C -1.5184 -3.3009 0.1274
C -1.0147 -2.0640 0.8853
H 2.2388 -0.4118 -3.0096
H 1.6334 1.2240 -1.2492
H 0.1218 0.5671 0.6150
H 1.3426 -2.7319 -2.9354
H -0.8291 -4.1487 -1.7661
H 0.3153 -4.3640 -0.4017
H -1.7856 -4.1226 0.7991
H -2.4256 -3.0339 -0.4327
H -1.8419 -1.4119 1.1792
H -0.4299 -2.3501 1.7656
