28
CCC#CCCCCCC
C -2.1361 2.3107 2.2125
C -1.0905 1.9248 3.2451
C -0.0650 1.0507 2.6611
C 0.7709 0.3362 2.1776
C 1.7875 -0.5407 1.5797
C 2.1028 -0.1619 0.1311
C 0.9321 -0.2891 -0.8523
C 0.3956 -1.7161 -0.9822
C -0.6833 -1.8051 -2.0625
C -1.2250 -3.2197 -2.1937
H -2.6424 1.4255 1.8121
H -1.6825 2.8461 1.3712
H -2.8928 2.9615 2.6620
H -0.6219 2.8309 3.6449
H -1.5779 1.4158 4.0840
H 2.7102 -0.4644 2.1676
H 1.4687 -1.5862 1.6445
H 2.9299 -0.7909 -0.2214
H 2.4659 0.8737 0.0996
H 0.1195 0.3865 -0.5601
H 1.2792 0.0530 -1.8356
H -0.0280 -2.0469 -0.0273
H 1.2185 -2.3981 -1.2278
H -1.5084 -1.1248 -1.8214
H -0.2718 -1.4873 -3.0276
H -1.6742 -3.5565 -1.2540
H -0.4294 -3.9208 -2.4654
H -1.9939 -3.2604 -2.9716
