17
O=C(O)CCCC(=O)O
O -0.1878 1.1758 0.7495
C 0.9459 0.8083 1.0039
O 1.4826 1.0319 2.2191
C 1.9042 0.0917 0.0895
C 1.3111 -0.1856 -1.2949
C 0.2609 -1.3002 -1.3086
C 0.8614 -2.6721 -1.1499
O 2.0404 -2.9566 -1.0313
O -0.0795 -3.6362 -1.1527
H 0.7765 1.4999 2.7122
H 2.7804 0.7393 -0.0315
H 2.2225 -0.8370 0.5729
H 2.1274 -0.4465 -1.9799
H 0.8534 0.7318 -1.6851
H -0.2519 -1.2823 -2.2773
H -0.4817 -1.1488 -0.5193
H 0.4276 -4.4685 -1.0493
