22
CC(C)NC(C)C
C -0.8312 1.6104 3.1838
C -0.7619 0.7335 1.9280
C -2.1374 0.1244 1.6614
N -0.2728 1.5787 0.8388
C 0.1245 0.9585 -0.4284
C 0.8280 -0.3935 -0.3064
C -1.0294 0.8951 -1.4319
H 0.1487 2.0431 3.4158
H -1.1425 1.0189 4.0519
H -1.5461 2.4327 3.0643
H -0.0466 -0.0675 2.1449
H -2.5261 -0.3629 2.5626
H -2.8633 0.8866 1.3572
H -2.0929 -0.6409 0.8821
H -0.9168 2.3503 0.6683
H 0.8604 1.6481 -0.8620
H 0.1509 -1.1814 0.0381
H 1.2252 -0.7052 -1.2789
H 1.6739 -0.3346 0.3872
H -0.6585 0.5959 -2.4187
H -1.5054 1.8752 -1.5479
H -1.7991 0.1764 -1.1407
