20
CN(C)c1ccccc1
C 0.3924 -2.5775 0.0978
N 0.0065 -1.1981 0.3886
C -1.1014 -1.0382 1.3285
C 0.9802 -0.1929 0.3133
C 0.7716 1.0930 0.8459
C 1.7361 2.1070 0.7591
C 2.9453 1.8673 0.1216
C 3.1821 0.6169 -0.4322
C 2.2111 -0.3903 -0.3401
H 0.7321 -2.6847 -0.9380
H 1.1772 -2.9201 0.7812
H -0.4591 -3.2591 0.2048
H -1.7797 -1.8982 1.2929
H -0.7359 -0.9485 2.3575
H -1.7129 -0.1652 1.0764
H -0.1580 1.3471 1.3452
H 1.5311 3.0839 1.1885
H 3.6938 2.6508 0.0501
H 4.1195 0.4166 -0.9439
H 2.4511 -1.3416 -0.8043
