17
CC#Cc1ccccc1
C 2.6779 0.7181 -3.2641
C 1.6553 0.1952 -2.3592
C 0.8152 -0.2344 -1.6158
C -0.1853 -0.7461 -0.7305
C -1.4867 -0.9569 -1.1920
C -2.4629 -1.4564 -0.3273
C -2.1390 -1.7452 0.9983
C -0.8399 -1.5354 1.4611
C 0.1371 -1.0360 0.5974
H 2.2513 0.9392 -4.2472
H 3.1134 1.6403 -2.8679
H 3.4854 -0.0076 -3.3999
H -1.7462 -0.7340 -2.2239
H -3.4750 -1.6198 -0.6882
H -2.8992 -2.1340 1.6710
H -0.5873 -1.7604 2.4939
H 1.1475 -0.8749 0.9648
