15
CC(C)(C)C#N
C -0.3664 1.3352 1.4540
C 0.0758 0.2859 0.4249
C -0.2865 0.7660 -0.9872
C 1.5930 0.0764 0.5234
C -0.6151 -0.9931 0.7004
N -1.1569 -1.9964 0.9166
H 0.1283 2.2971 1.2776
H -1.4492 1.5035 1.4122
H -0.1259 1.0180 2.4758
H 0.0124 0.0335 -1.7466
H 0.2102 1.7139 -1.2236
H -1.3672 0.9198 -1.0913
H 2.1359 1.0073 0.3241
H 1.9398 -0.6737 -0.1974
H 1.8835 -0.2730 1.5214
