14
Nc1ccccc1
N -1.2665 0.3138 2.6181
C -0.9878 0.8156 1.3409
C 0.3310 0.8868 0.8845
C 0.6123 1.2752 -0.4281
C -0.4288 1.5555 -1.3099
C -1.7485 1.4287 -0.8831
C -2.0239 1.0399 0.4306
H -2.1775 0.5868 2.9727
H -0.5251 0.4794 3.2911
H 1.1539 0.6402 1.5496
H 1.6434 1.3440 -0.7636
H -0.2124 1.8517 -2.3327
H -2.5650 1.6175 -1.5747
H -3.0585 0.9139 0.7377
