19
CN(C=O)c1ccccc1
C -1.1083 -1.3740 -1.7856
N -0.0951 -0.7021 -0.9823
C 0.9384 -0.0814 -1.6722
O 1.0945 -0.0749 -2.8900
C -0.2234 -0.6928 0.4501
C 0.7916 -0.2113 1.2927
C 0.6453 -0.2115 2.6867
C -0.5184 -0.6958 3.2710
C -1.5355 -1.1841 2.4613
C -1.3874 -1.1841 1.0689
H -1.2230 -2.4083 -1.4458
H -0.8379 -1.4046 -2.8452
H -2.0557 -0.8326 -1.6992
H 1.6532 0.4556 -1.0389
H 1.7376 0.1585 0.9138
H 1.4501 0.1647 3.3142
H -0.6303 -0.6956 4.3519
H -2.4498 -1.5664 2.9084
H -2.2204 -1.5707 0.4894
