16
COc1ccccc1
C -1.5418 -2.2058 2.3576
O -2.1402 -1.1440 1.6258
C -1.4275 -0.6425 0.5714
C -0.1698 -1.0762 0.1489
C 0.4487 -0.4719 -0.9505
C -0.1855 0.5662 -1.6309
C -1.4403 1.0027 -1.2136
C -2.0567 0.3989 -0.1162
H -2.2313 -2.4900 3.1584
H -1.3880 -3.0852 1.7234
H -0.6044 -1.8850 2.8240
H 0.3567 -1.8804 0.6510
H 1.4282 -0.8133 -1.2756
H 0.2975 1.0338 -2.4848
H -1.9404 1.8115 -1.7394
H -3.0363 0.7420 0.2072
