16
CCC(=O)CC
C 0.2520 -0.5072 2.8278
C -0.5083 -0.1672 1.5586
C 0.3886 -0.1162 0.3327
O 1.5979 -0.3320 0.3948
C -0.3091 0.2196 -0.9752
C 0.6438 0.2536 -2.1564
H 0.7369 -1.4855 2.7457
H -0.4286 -0.5337 3.6843
H 1.0296 0.2364 3.0315
H -0.9887 0.8103 1.6710
H -1.2830 -0.9210 1.3836
H -1.0837 -0.5339 -1.1520
H -0.7893 1.1974 -0.8646
H 0.1028 0.4982 -3.0756
H 1.4259 1.0058 -2.0091
H 1.1332 -0.7161 -2.2950
