16
CCCCON=O
C -0.2532 2.1766 1.2226
C 0.7183 1.0706 0.8408
C 0.0959 -0.3243 0.8742
C -0.3255 -0.7745 2.2703
O -0.7976 -2.1173 2.1777
N -1.1862 -2.5592 3.4818
O -1.6027 -3.7208 3.4463
H 0.2206 3.1546 1.0901
H -1.1494 2.1466 0.5948
H -0.5604 2.0970 2.2695
H 1.0848 1.2637 -0.1744
H 1.5902 1.1060 1.5043
H -0.7681 -0.3693 0.1993
H 0.8190 -1.0460 0.4729
H 0.5322 -0.7291 2.9529
H -1.1274 -0.1331 2.6537
