15
O=COc1ccccc1
O 0.5703 3.7500 -0.5438
C 1.2553 3.1906 -1.3849
O 1.3392 1.8387 -1.6707
C 0.5280 1.0290 -0.8704
C 0.8121 0.8483 0.4829
C 0.0134 -0.0104 1.2375
C -1.0468 -0.6904 0.6339
C -1.3094 -0.5175 -0.7269
C -0.5151 0.3404 -1.4868
H 1.9386 3.7137 -2.0730
H 1.6384 1.3738 0.9514
H 0.2158 -0.1497 2.2963
H -1.6687 -1.3579 1.2254
H -2.1321 -1.0530 -1.1934
H -0.7113 0.4707 -2.5465
