18
c1ccc2ccccc2c1
C 1.4031 -0.7262 -3.4520
C 0.9725 0.5696 -3.1828
C 0.2575 0.8388 -2.0146
C -0.0359 -0.1861 -1.1003
C -0.7542 0.0676 0.0796
C -1.0375 -0.9625 0.9780
C -0.6069 -2.2584 0.7088
C 0.1081 -2.5276 -0.4594
C 0.4016 -1.5027 -1.3738
C 1.1198 -1.7564 -2.5537
H 1.9599 -0.9370 -4.3612
H 1.1925 1.3725 -3.8815
H -0.0706 1.8576 -1.8216
H -1.0989 1.0737 0.3072
H -1.5943 -0.7518 1.8872
H -0.8269 -3.0613 1.4075
H 0.4362 -3.5463 -0.6525
H 1.4646 -2.7624 -2.7813
