13
C=C=C(C)C
C -1.7294 1.0761 -1.2245
C -0.5321 1.2098 -0.7427
C 0.6718 1.3442 -0.2583
C 1.8342 1.7805 -1.1040
C 0.9924 1.0735 1.1842
H -2.4218 1.9096 -1.2216
H -2.0557 0.1287 -1.6373
H 1.5350 1.9613 -2.1421
H 2.2636 2.7081 -0.7119
H 2.6126 1.0107 -1.1080
H 1.7394 0.2773 1.2656
H 1.3904 1.9747 1.6617
H 0.1050 0.7602 1.7449
