18
CCCCOC
C 0.7472 -1.6306 -0.3262
C -0.5490 -1.0209 -0.8352
C -0.5726 0.5113 -0.8317
C 0.3476 1.1612 -1.8666
O 1.7324 0.9821 -1.5851
C 2.2222 1.8561 -0.5776
H 1.0270 -1.2119 0.6454
H 0.6293 -2.7126 -0.2065
H 1.5704 -1.4700 -1.0274
H -1.3657 -1.3735 -0.1933
H -0.7589 -1.3966 -1.8433
H -0.3393 0.8714 0.1758
H -1.5996 0.8285 -1.0511
H 0.1242 2.2312 -1.9552
H 0.1581 0.7169 -2.8500
H 3.2981 1.6891 -0.4759
H 1.7520 1.6477 0.3867
H 2.0597 2.9006 -0.8601
