34
c1ccc(P(c2ccccc2)c2ccccc2)cc1
C 4.1053 0.2960 -1.6963
C 3.8725 -1.0755 -1.6805
C 2.5794 -1.5626 -1.4703
C 1.4953 -0.6889 -1.2692
P -0.1525 -1.4219 -1.0045
C -1.2955 -0.0101 -1.1566
C -1.8070 0.7132 -0.0690
C -2.6828 1.7862 -0.2652
C -3.0638 2.1534 -1.5526
C -2.5705 1.4482 -2.6457
C -1.6959 0.3759 -2.4488
C -0.1785 -1.8239 0.7733
C 0.7762 -1.3767 1.6986
C 0.6902 -1.7289 3.0497
C -0.3510 -2.5361 3.4987
C -1.3075 -2.9930 2.5977
C -1.2207 -2.6411 1.2478
C 1.7524 0.6899 -1.2916
C 3.0463 1.1782 -1.5023
H 5.1096 0.6772 -1.8605
H 4.6948 -1.7698 -1.8320
H 2.4262 -2.6406 -1.4616
H -1.5322 0.4633 0.9525
H -3.0662 2.3332 0.5923
H -3.7448 2.9868 -1.7030
H -2.8646 1.7292 -3.6536
H -1.3242 -0.1574 -3.3223
H 1.6028 -0.7410 1.3919
H 1.4408 -1.3700 3.7494
H -0.4156 -2.8092 4.5485
H -2.1227 -3.6243 2.9415
H -1.9837 -3.0117 0.5651
H 0.9558 1.4137 -1.1400
H 3.2226 2.2507 -1.5148
