19
CCC(C)C(C)=O
C -0.2050 1.3193 -3.3664
C 0.3361 1.7568 -2.0128
C -0.7213 1.7179 -0.9018
C -1.1635 0.3023 -0.5431
C -0.2271 2.4473 0.3447
C 1.0443 1.9733 1.0037
O -0.8551 3.4026 0.8059
H 0.5683 1.4299 -4.1334
H -0.5130 0.2697 -3.3542
H -1.0642 1.9295 -3.6622
H 1.1905 1.1211 -1.7507
H 0.7270 2.7778 -2.1077
H -1.6060 2.2707 -1.2458
H -1.8090 0.3068 0.3421
H -0.3071 -0.3443 -0.3246
H -1.7276 -0.1534 -1.3629
H 1.2075 2.5399 1.9254
H 1.8955 2.1403 0.3402
H 0.9655 0.9156 1.2630
