28
O=C(Nc1ccccc1)Nc1ccccc1
O -1.5795 0.7597 0.0418
C -0.8148 -0.0226 -0.5058
N -0.8076 -1.3980 -0.3134
C -1.7221 -2.1657 0.4378
C -1.4122 -3.5182 0.6358
C -2.2716 -4.3491 1.3599
C -3.4525 -3.8364 1.8892
C -3.7729 -2.4957 1.6912
C -2.9127 -1.6641 0.9664
N 0.1756 0.3324 -1.4124
C 0.5687 1.6334 -1.7903
C 1.4714 1.7455 -2.8566
C 1.9182 2.9984 -3.2853
C 1.4702 4.1520 -2.6481
C 0.5791 4.0505 -1.5827
C 0.1320 2.7964 -1.1537
H 0.0239 -1.8793 -0.6174
H -0.4975 -3.9451 0.2339
H -2.0185 -5.3953 1.5104
H -4.1235 -4.4787 2.4533
H -4.6953 -2.0896 2.0989
H -3.2067 -0.6283 0.8273
H 0.5488 -0.4187 -1.9710
H 1.8378 0.8619 -3.3720
H 2.6151 3.0729 -4.1159
H 1.8145 5.1284 -2.9784
H 0.2279 4.9473 -1.0784
H -0.5540 2.7630 -0.3128
