19
CCOC(C)CO
C 0.1275 -1.9422 -1.9915
C 0.7266 -0.7266 -1.3113
O 0.7696 -0.9781 0.0921
C 1.4032 0.0731 0.8425
C 0.4669 1.2620 1.0199
C 1.7733 -0.5237 2.2063
O 2.6537 -1.6323 2.0175
H 0.7260 -2.8350 -1.7823
H 0.0756 -1.7975 -3.0743
H -0.8808 -2.1384 -1.6122
H 0.1075 0.1507 -1.5206
H 1.7396 -0.5534 -1.6901
H 2.3242 0.3742 0.3283
H -0.4948 0.9435 1.4365
H 0.2525 1.7427 0.0606
H 0.9057 2.0156 1.6814
H 0.8869 -0.8962 2.7304
H 2.2785 0.2108 2.8405
H 2.2238 -2.1776 1.3294
