19
CCC(=O)OC(=O)CC
C -3.2068 0.1940 1.2966
C -2.1333 1.2156 1.6133
C -1.0080 1.1440 0.6093
O -0.9332 1.8994 -0.3476
O -0.1792 0.1221 0.9462
C 0.9331 -0.0613 0.1886
O 1.3453 0.6239 -0.7347
C 1.6698 -1.2822 0.6846
C 2.5103 -0.9500 1.9011
H -4.0321 0.2729 2.0107
H -2.8085 -0.8249 1.3449
H -3.6078 0.3462 0.2890
H -2.5506 2.2285 1.5890
H -1.7303 1.0675 2.6213
H 2.3040 -1.6538 -0.1280
H 0.9482 -2.0763 0.9064
H 1.8847 -0.6034 2.7303
H 3.0639 -1.8325 2.2358
H 3.2308 -0.1570 1.6751
