19
C=C1CCCCC1
C -1.5610 -1.3983 -0.1168
C -0.5198 -0.5984 0.1624
C 0.6066 -0.3880 -0.8215
C 1.9126 -0.0643 -0.1000
C 1.7973 1.1816 0.7839
C 0.3837 1.4303 1.3195
C -0.4139 0.1379 1.4768
H -1.6336 -1.9242 -1.0640
H -2.3676 -1.5478 0.5946
H 0.7489 -1.2796 -1.4435
H 0.3469 0.4417 -1.4906
H 2.7218 0.0747 -0.8262
H 2.2014 -0.9203 0.5244
H 2.1190 2.0662 0.2207
H 2.4986 1.0830 1.6214
H -0.1474 2.1001 0.6302
H 0.4423 1.9579 2.2785
H -1.4099 0.3737 1.8699
H 0.0843 -0.5085 2.2099
