16
C1CCOCC1
C -0.4002 -1.7233 0.8358
C -0.0529 -0.5997 -0.1387
C -0.9671 -0.6383 -1.3537
O -2.3457 -0.4764 -1.0177
C -2.7217 -0.9571 0.2735
C -1.8701 -2.1275 0.7408
H -0.1628 -1.3979 1.8556
H 0.2254 -2.6019 0.6382
H -0.1810 0.3620 0.3736
H 0.9982 -0.6708 -0.4378
H -0.8555 -1.5867 -1.8920
H -0.7031 0.1620 -2.0524
H -2.6551 -0.1230 0.9815
H -3.7747 -1.2518 0.2205
H -1.9632 -2.9475 0.0177
H -2.2210 -2.5052 1.7070
