15
CCC(C)O
C 0.2106 -1.6164 -1.0723
C -0.5235 -0.2915 -1.1959
C -0.8922 0.3348 0.1518
C -1.8785 -0.5009 0.9552
O -1.4996 1.6047 -0.0853
H -0.4286 -2.3904 -0.6375
H 0.5257 -1.9648 -2.0612
H 1.1045 -1.5135 -0.4491
H 0.1059 0.4122 -1.7552
H -1.4262 -0.4242 -1.8052
H 0.0095 0.5066 0.7504
H -1.4486 -1.4598 1.2571
H -2.1843 0.0365 1.8598
H -2.7916 -0.6896 0.3799
H -0.8529 2.1554 -0.5589
