14
CCOC(=O)CCl
C -2.9048 -0.2388 -0.5786
C -1.6311 -0.0880 0.2300
O -0.5389 -0.5748 -0.5610
C 0.6806 -0.4955 0.0563
O 0.8536 -0.0530 1.1828
C 1.7346 -1.0372 -0.8804
H -2.8351 0.3229 -1.5160
H -3.0688 -1.2876 -0.8474
H -3.7700 0.1208 -0.0146
H -1.7078 -0.6726 1.1536
H -1.4697 0.9683 0.4724
H 1.7552 -0.4382 -1.7942
H 1.5165 -2.0828 -1.1116
