21
CC(C)SC(C)C
C 0.9048 0.2416 -1.6243
C -0.0130 0.6132 -0.4573
C 0.4137 1.9527 0.1307
S 0.0787 -0.7536 0.7661
C -1.3092 -0.4192 1.9259
C -0.8428 0.4231 3.1096
C -2.5654 0.1487 1.2773
H 0.8581 1.0092 -2.4052
H 0.6028 -0.7056 -2.0855
H 1.9516 0.1556 -1.3107
H -1.0310 0.6818 -0.8520
H 1.3954 1.8942 0.6133
H -0.3109 2.3248 0.8583
H 0.4792 2.7121 -0.6570
H -1.5726 -1.4066 2.3245
H 0.0179 -0.0350 3.6096
H -1.6429 0.5034 3.8543
H -0.5681 1.4403 2.8215
H -3.3910 0.1531 1.9982
H -2.8842 -0.4587 0.4236
H -2.4308 1.1821 0.9443
