32
CC(C(C)(C)C)C(C)(C)C
C -0.0802 -2.9259 0.3562
C -1.2510 -1.9355 0.1208
C -1.2572 -0.7903 1.2341
C -0.9709 -1.3985 2.6361
C -2.6457 -0.1207 1.3660
C -0.2011 0.3010 0.9975
C -1.3482 -1.5570 -1.4265
C -1.8401 -2.8030 -2.2183
C 0.0073 -1.1431 -2.0389
C -2.3686 -0.4487 -1.7374
H -0.2028 -3.4680 1.2992
H -0.0233 -3.7000 -0.4122
H 0.8848 -2.4109 0.3822
H -2.1586 -2.5232 0.3291
H -1.6518 -2.2296 2.8517
H -1.1022 -0.6533 3.4302
H 0.0595 -1.7588 2.7246
H -3.4457 -0.8684 1.3936
H -2.7167 0.4642 2.2915
H -2.8600 0.5847 0.5628
H -0.4245 0.9061 0.1160
H -0.1589 0.9950 1.8458
H 0.8001 -0.1249 0.8795
H -2.7969 -3.1659 -1.8261
H -1.1266 -3.6307 -2.1862
H -1.9907 -2.5645 -3.2782
H -0.1046 -0.9003 -3.1028
H 0.7486 -1.9464 -1.9784
H 0.4299 -0.2601 -1.5564
H -3.3478 -0.6761 -1.3037
H -2.0324 0.5296 -1.3870
H -2.5189 -0.3416 -2.8191
