16
CCC(C)C=O
C 3.0397 -0.5173 0.8055
C 1.5899 -0.1980 1.1470
C 0.7622 0.1695 -0.0896
C -0.6196 0.6770 0.3111
C 0.5828 -1.0404 -0.9806
O 0.9614 -1.0790 -2.1473
H 3.1138 -1.3930 0.1535
H 3.5195 0.3286 0.3031
H 3.6029 -0.7316 1.7195
H 1.5794 0.6383 1.8566
H 1.1485 -1.0608 1.6609
H 1.2741 0.9495 -0.6656
H -1.2178 0.9165 -0.5750
H -0.5409 1.5828 0.9211
H -1.1711 -0.0753 0.8861
H 0.0797 -1.9097 -0.5220
