14
CC(C)(C)Cl
C -0.3206 0.3872 -3.0523
C 0.3297 -0.0284 -1.7315
C 1.7132 0.6098 -1.5938
C 0.4338 -1.5521 -1.6440
H -0.4192 1.4763 -3.1249
H 0.2787 0.0524 -3.9066
H -1.3210 -0.0474 -3.1604
H 2.3780 0.2821 -2.4011
H 2.1875 0.3366 -0.6442
H 1.6558 1.7035 -1.6368
H 1.0574 -1.9494 -2.4530
H -0.5513 -2.0260 -1.7235
H 0.8822 -1.8691 -0.6955
