12
Ic1ccccc1
I 1.7868 -2.8745 2.8518
C 0.4971 -1.8434 1.5887
C -0.0716 -0.6411 2.0100
C -0.9374 0.0497 1.1602
C -1.2313 -0.4615 -0.1041
C -0.6605 -1.6640 -0.5215
C 0.2058 -2.3581 0.3251
H 0.1485 -0.2313 2.9921
H -1.3829 0.9869 1.4843
H -1.9058 0.0778 -0.7646
H -0.8904 -2.0612 -1.5070
H 0.6433 -3.2936 -0.0130
