18
CCC(C)(C)O
C 0.3389 -0.4959 -0.5988
C -0.7217 0.4802 -0.1017
C -0.2400 1.4428 1.0006
C -1.3706 2.4079 1.3715
C 0.2469 0.7029 2.2485
O 0.8443 2.2154 0.4807
H 1.2293 0.0285 -0.9584
H 0.6397 -1.1949 0.1869
H -0.0597 -1.0872 -1.4297
H -1.0535 1.0673 -0.9680
H -1.5897 -0.0900 0.2512
H -2.2400 1.8757 1.7712
H -1.6890 2.9892 0.4985
H -1.0360 3.1354 2.1199
H 1.1489 0.1178 2.0404
H -0.5237 0.0349 2.6464
H 0.5261 1.4122 3.0365
H 1.1399 2.8260 1.1776
