16
CC(C)(C)OO
C -0.5863 -0.4157 0.9238
C -0.2464 0.6273 -0.1457
C 0.4097 1.8670 0.4707
C 0.7084 0.0068 -1.1721
O -1.4266 0.9966 -0.8826
O -2.3684 1.5969 0.0539
H -1.2457 0.0000 1.6935
H 0.3156 -0.7884 1.4209
H -1.1185 -1.2659 0.4824
H 1.3662 1.6206 0.9436
H 0.5847 2.6342 -0.2920
H -0.2326 2.3238 1.2315
H 1.6490 -0.3121 -0.7109
H 0.2483 -0.8619 -1.6572
H 0.9391 0.7207 -1.9714
H -3.0703 0.9312 -0.0596
