14
CC(C)(C)F
C -0.0400 -0.6654 0.8217
C -0.1418 -0.8649 -0.6850
C 0.8659 0.0049 -1.4256
C -1.5595 -0.6097 -1.1803
F 0.1618 -2.1692 -0.9517
H 0.9680 -0.9074 1.1756
H -0.7276 -1.3370 1.3470
H -0.2720 0.3649 1.1099
H 1.8865 -0.2276 -1.1032
H 0.6818 1.0707 -1.2562
H 0.8243 -0.1887 -2.5028
H -1.6351 -0.8119 -2.2542
H -2.2684 -1.2805 -0.6831
H -1.8718 0.4236 -0.9980
