26
CC(C)C(C)C(C)C
C -0.7869 -1.8104 -2.1271
C -1.2163 -1.3546 -0.7265
C -2.5938 -0.6844 -0.8416
C -0.1618 -0.4175 -0.0493
C -0.6295 0.0064 1.3543
C 1.2814 -1.0149 -0.0280
C 1.4015 -2.3069 0.7846
C 2.3244 -0.0017 0.4625
H -0.5386 -0.9541 -2.7630
H 0.0810 -2.4748 -2.0855
H -1.5876 -2.3742 -2.6184
H -1.3467 -2.2519 -0.1088
H -3.2936 -1.3211 -1.3943
H -3.0399 -0.5104 0.1419
H -2.5250 0.2748 -1.3654
H -0.1113 0.4993 -0.6544
H -0.8367 -0.8627 1.9867
H 0.1115 0.6296 1.8619
H -1.5415 0.6089 1.3021
H 1.5673 -1.2467 -1.0608
H 0.7338 -3.0850 0.4042
H 1.1714 -2.1437 1.8420
H 2.4224 -2.7010 0.7271
H 2.2245 0.9513 -0.0672
H 2.2430 0.1879 1.5370
H 3.3364 -0.3787 0.2762
