27
CC(C)(C)SC(C)(C)C
C -0.7369 -2.5839 0.6274
C -1.1494 -1.1104 0.5174
C -1.8403 -0.8282 -0.8170
C -2.1699 -0.8249 1.6421
S 0.2795 0.0096 0.9012
C 1.3734 0.1181 -0.5939
C 2.6898 0.7257 -0.0593
C 1.7118 -1.2278 -1.2354
C 0.7964 1.0950 -1.6265
H -1.6185 -3.2348 0.5760
H -0.2367 -2.7964 1.5795
H -0.0751 -2.9010 -0.1802
H -2.1045 0.2299 -0.9209
H -2.7737 -1.3992 -0.8962
H -1.2330 -1.1260 -1.6740
H -3.0602 -1.4560 1.5306
H -2.5124 0.2171 1.6262
H -1.7553 -1.0333 2.6361
H 3.4155 0.8599 -0.8710
H 3.1629 0.0780 0.6889
H 2.5332 1.7128 0.3930
H 2.4961 -1.1074 -1.9932
H 2.0891 -1.9449 -0.4980
H 0.8593 -1.6705 -1.7540
H -0.0977 0.7113 -2.1207
H 1.5271 1.2905 -2.4210
H 0.5463 2.0626 -1.1759
