29
CC(C)(C)CC(C)(C)C
C 0.5917 -2.1646 1.9956
C -0.4590 -1.8424 0.9278
C -1.3599 -3.0926 0.7655
C -1.3643 -0.7021 1.4299
C 0.1462 -1.5329 -0.4774
C 1.3211 -0.5312 -0.7067
C 1.1206 0.8239 -0.0200
C 1.4040 -0.2749 -2.2326
C 2.6766 -1.1245 -0.2795
H 1.1673 -1.2795 2.2796
H 0.1192 -2.5359 2.9130
H 1.2847 -2.9390 1.6499
H -0.7763 -3.9626 0.4433
H -2.1450 -2.9205 0.0204
H -1.8509 -3.3576 1.7091
H -2.0882 -0.4026 0.6640
H -0.7982 0.1836 1.7244
H -1.9333 -1.0140 2.3140
H 0.4656 -2.4901 -0.9169
H -0.6931 -1.2073 -1.1106
H 1.2092 0.7458 1.0669
H 0.1421 1.2515 -0.2633
H 1.8810 1.5450 -0.3431
H 1.5614 -1.2096 -2.7828
H 2.2318 0.3994 -2.4810
H 0.4824 0.1845 -2.6080
H 2.7787 -1.1985 0.8048
H 2.8243 -2.1241 -0.7029
H 3.5060 -0.4963 -0.6265
