18
CC1CCCC1
C 1.1927 0.5203 1.1310
C -0.3215 0.3508 1.0244
C -0.9860 1.5198 0.3006
C -0.8345 1.2045 -1.1846
C -0.6580 -0.3106 -1.2824
C -0.7113 -0.8379 0.1484
H 1.6419 -0.3516 1.6180
H 1.4375 1.4030 1.7312
H 1.6681 0.6389 0.1520
H -0.7299 0.2380 2.0349
H -0.5556 2.4914 0.5623
H -2.0526 1.5503 0.5560
H 0.0471 1.7095 -1.5958
H -1.7031 1.5500 -1.7544
H 0.3097 -0.5440 -1.7412
H -1.4327 -0.7707 -1.9041
H -1.7387 -1.1440 0.3822
H -0.0661 -1.7103 0.2912
