20
CCOP(=O)(O)OCC
C -1.5695 0.2931 1.6690
C -0.6568 -0.0216 0.5020
O 0.3415 -0.9264 0.9371
P 1.3957 -1.4236 -0.1652
O 2.0862 -0.3578 -0.9487
O 0.5353 -2.4124 -1.0856
O 2.3539 -2.4421 0.6208
C 3.2450 -1.8728 1.5633
C 4.0419 -2.9849 2.2130
H -1.0008 0.7301 2.4965
H -2.0360 -0.6210 2.0511
H -2.3556 0.9931 1.3723
H -0.1825 0.8953 0.1381
H -1.2312 -0.4716 -0.3138
H 1.0479 -2.6777 -1.8695
H 2.6764 -1.3252 2.3215
H 3.9178 -1.1763 1.0530
H 3.3753 -3.6961 2.7120
H 4.7444 -2.5835 2.9487
H 4.6024 -3.5486 1.4599
