13
CP(C)C
C 0.3202 3.3374 0.2800
P 0.4670 2.2303 -1.1750
C -1.1072 2.6197 -2.0320
C 0.0213 0.6276 -0.4024
H 1.1183 3.1292 0.9986
H -0.6391 3.2119 0.7909
H 0.4077 4.3836 -0.0276
H -1.2675 1.9297 -2.8657
H -1.9660 2.5448 -1.3583
H -1.0793 3.6360 -2.4360
H -0.9169 0.6929 0.1566
H -0.0919 -0.1456 -1.1681
H 0.8070 0.3063 0.2878
