12
COS(C)(=O)=O
C -0.3585 -1.0379 1.8437
O -0.5457 0.2639 1.3214
S -0.1824 0.4889 -0.2502
C -0.5940 2.2145 -0.3304
O -1.1299 -0.2537 -1.0538
O 1.2477 0.3429 -0.4188
H 0.6913 -1.3349 1.7651
H -0.9913 -1.7571 1.3157
H -0.6418 -1.0327 2.8995
H 0.0389 2.7616 0.3707
H -1.6493 2.3380 -0.0801
H -0.4086 2.5602 -1.3495
