19
CC1=C(C)CCC1
C -1.0889 -0.5660 -2.2017
C -0.2046 -0.3059 -1.0318
C -0.1321 -0.9557 0.1409
C -0.9146 -2.1291 0.6195
C 0.8814 -0.3286 1.0521
C 1.6621 0.5915 0.1187
C 0.7499 0.8507 -1.0763
H -1.7540 -1.4189 -2.0461
H -0.4861 -0.7732 -3.0916
H -1.7136 0.3098 -2.4048
H -0.2422 -2.9601 0.8553
H -1.4706 -1.8680 1.5256
H -1.6350 -2.4858 -0.1207
H 0.3813 0.2379 1.8449
H 1.5438 -1.0706 1.5086
H 2.5774 0.0868 -0.2175
H 1.9686 1.5187 0.6135
H 1.3266 0.8768 -2.0061
H 0.2075 1.7960 -0.9671
