13
COS(=O)(=O)OC
C 2.1153 0.2692 1.5717
O 1.0078 0.5486 0.7403
S -0.3706 -0.2737 1.0053
O -0.5785 -0.3703 2.4360
O -1.3903 0.2842 0.1419
O -0.0140 -1.7635 0.4559
C -1.0569 -2.7177 0.4648
H 2.3484 -0.7996 1.5631
H 2.9819 0.8166 1.1912
H 1.9182 0.6018 2.5949
H -0.6604 -3.6690 0.0999
H -1.4354 -2.8651 1.4805
H -1.8704 -2.4038 -0.1956
