15
CC=C(C)C
C 1.0068 -1.2124 2.5742
C 0.2661 -0.6616 1.3974
C 0.5933 0.3893 0.6204
C -0.2920 0.7930 -0.5309
C 1.8138 1.2520 0.7857
H 1.2709 -2.2576 2.3845
H 0.3639 -1.1805 3.4595
H 1.9260 -0.6742 2.8104
H -0.6505 -1.2057 1.1692
H 0.2634 0.7388 -1.4731
H -1.1717 0.1477 -0.6266
H -0.6469 1.8198 -0.3941
H 2.4261 1.2131 -0.1215
H 1.5172 2.2925 0.9558
H 2.4511 0.9554 1.6206
