20
CCCC(C)C
C 0.4032 0.4790 -1.6517
C -0.0622 1.6122 -0.7553
C -0.3768 1.2093 0.6895
C -1.5642 0.2604 0.9484
C -2.8180 0.6339 0.1605
C -1.2120 -1.2136 0.7472
H 0.8174 0.8843 -2.5809
H -0.4262 -0.1753 -1.9305
H 1.1816 -0.1187 -1.1678
H -0.9236 2.1124 -1.2116
H 0.7379 2.3627 -0.7209
H 0.5276 0.7956 1.1536
H -0.5849 2.1411 1.2337
H -1.8108 0.3687 2.0140
H -3.0762 1.6866 0.3157
H -2.6891 0.4655 -0.9132
H -3.6714 0.0304 0.4886
H -1.0724 -1.4707 -0.3047
H -2.0166 -1.8508 1.1311
H -0.2976 -1.4759 1.2894
