25
CCOP(OCC)OCC
C -3.3054 1.8217 -0.6299
C -2.1623 1.1827 0.1376
O -0.9465 1.7784 -0.2993
P 0.4119 1.2559 0.4083
O 1.4313 2.2605 -0.3468
C 2.7989 2.1888 0.0386
C 3.5726 3.2164 -0.7672
O 0.6566 -0.0431 -0.5279
C 0.9180 -1.2658 0.1511
C 1.1175 -2.3517 -0.8903
H -4.2655 1.3948 -0.3266
H -3.3289 2.9028 -0.4575
H -3.1769 1.6731 -1.7072
H -2.1551 0.1034 -0.0585
H -2.3079 1.3527 1.2117
H 3.2051 1.1903 -0.1655
H 2.9079 2.4104 1.1076
H 3.4709 3.0211 -1.8399
H 4.6340 3.1994 -0.5043
H 3.1799 4.2227 -0.5874
H 1.8254 -1.1786 0.7617
H 0.0725 -1.5341 0.7967
H 1.9513 -2.1005 -1.5542
H 0.2269 -2.4502 -1.5198
H 1.3223 -3.3151 -0.4149
