20
FC(F)(F)C(F)(F)C(F)(F)C(F)(F)C(F)(F)C(F)(F)F
F -1.8688 -1.9236 1.0904
C -1.3384 -2.3913 -0.0576
F -2.3723 -2.6290 -0.8982
F -0.7886 -3.5977 0.2306
C -0.3045 -1.4551 -0.6723
F 0.1595 -2.0241 -1.8288
F 0.7815 -1.3312 0.1359
C -0.8800 -0.0873 -0.9913
F -2.1080 -0.2572 -1.5643
F -0.1315 0.5220 -1.9572
C -0.9877 0.8591 0.2041
F -1.0588 0.1719 1.3710
F -2.1946 1.5124 0.1075
C 0.0826 1.9385 0.2963
F -0.2248 2.7629 1.3490
F 0.0348 2.7399 -0.8077
C 1.4819 1.3965 0.4910
F 1.5649 0.6121 1.5891
F 2.3899 2.3893 0.6396
F 1.8846 0.6538 -0.5641
