15
CC(C)(C)S
C -0.4700 1.1005 -1.2791
C -0.0693 -0.1641 -0.5142
C 0.7323 -1.1022 -1.4211
C -1.3122 -0.8789 0.0238
S 0.9923 0.3171 0.9031
H 0.4051 1.6358 -1.6661
H -1.1023 0.8490 -2.1387
H -1.0406 1.7932 -0.6494
H 1.0393 -2.0133 -0.8941
H 0.1313 -1.4141 -2.2834
H 1.6336 -0.6166 -1.8135
H -1.0498 -1.7837 0.5847
H -1.9015 -0.2301 0.6824
H -1.9684 -1.1866 -0.7989
H 0.0938 1.1024 1.5155
