15
C=CC(C)C
C 1.5776 0.5391 -1.5840
C 0.9474 0.4517 -0.4050
C -0.5421 0.3455 -0.1613
C -1.4205 0.4785 -1.4082
C -0.8529 -0.9705 0.5556
H 2.6604 0.6155 -1.6245
H 1.0501 0.5355 -2.5315
H 1.5627 0.4654 0.4951
H -0.8113 1.1679 0.5145
H -2.4813 0.4484 -1.1359
H -1.2378 -0.3338 -2.1205
H -1.2402 1.4309 -1.9185
H -0.2844 -1.0567 1.4885
H -0.6052 -1.8350 -0.0708
H -1.9166 -1.0323 0.8104
