16
COP(C)(=O)OC
C -0.6629 1.6326 2.3461
O -0.6923 1.3759 0.9558
P 0.4888 0.4538 0.3546
C 1.8382 1.5791 0.0668
O 0.8418 -0.7168 1.2204
O -0.0607 0.0410 -1.1037
C -0.5415 1.0320 -1.9864
H 0.3054 2.0477 2.6378
H -1.4448 2.3577 2.5851
H -0.8552 0.7099 2.8999
H 1.5145 2.4631 -0.4888
H 2.2617 1.9177 1.0166
H 2.6313 1.0852 -0.5015
H 0.2855 1.6455 -2.3514
H -1.0099 0.5378 -2.8417
H -1.2886 1.6626 -1.4984
