14
CCC(C)F
C -0.5094 0.3519 -1.3996
C -0.0973 0.8324 -0.0185
C 1.2415 0.2707 0.4507
C 2.4251 0.7228 -0.3857
F 1.4477 0.7091 1.7271
H -1.5120 0.7188 -1.6416
H 0.1730 0.7190 -2.1719
H -0.5289 -0.7415 -1.4454
H -0.0651 1.9283 -0.0021
H -0.8682 0.5457 0.7070
H 1.2056 -0.8230 0.4885
H 2.3753 0.3334 -1.4062
H 3.3585 0.3758 0.0694
H 2.4772 1.8156 -0.4267
