20
CC(=O)Cc1ccccc1
C -3.0666 0.6707 0.3192
C -1.5695 0.6906 0.1381
O -0.8915 1.5742 0.6603
C -0.9964 -0.4314 -0.7116
C 0.5017 -0.3941 -0.8808
C 1.3378 -1.0505 0.0332
C 2.7245 -1.0122 -0.1224
C 3.2888 -0.3137 -1.1879
C 2.4676 0.3514 -2.0962
C 1.0806 0.3147 -1.9428
H -3.3748 1.5149 0.9424
H -3.5546 0.7549 -0.6549
H -3.3637 -0.2584 0.8118
H -1.2861 -1.3860 -0.2561
H -1.4737 -0.3897 -1.6981
H 0.9158 -1.5900 0.8778
H 3.3650 -1.5211 0.5929
H 4.3685 -0.2796 -1.3049
H 2.9078 0.9062 -2.9206
H 0.4562 0.8500 -2.6541
