19
SC1CCCCC1
S -2.9375 1.1775 1.4316
C -1.7414 0.4647 0.2530
C -1.1075 1.5615 -0.6011
C -0.1796 0.9718 -1.6693
C 0.4374 -0.3709 -1.2735
C 0.6404 -0.4779 0.2313
C -0.6773 -0.3490 1.0043
H -3.7707 1.6913 0.5148
H -2.3094 -0.2085 -0.4007
H -0.5248 2.2401 0.0365
H -1.8702 2.1747 -1.0968
H -0.7316 0.8402 -2.6079
H 0.6149 1.6972 -1.8825
H 1.3909 -0.5053 -1.7965
H -0.2182 -1.1854 -1.6067
H 1.1221 -1.4296 0.4831
H 1.3277 0.3139 0.5556
H -0.4458 0.0870 1.9847
H -1.0778 -1.3516 1.2032
