27
CCc1c(C)ccc(C)c1C
C 0.6306 2.6890 -0.5696
C 0.8290 1.1821 -0.4685
C -0.4830 0.4360 -0.2871
C -1.2086 0.0014 -1.4245
C -0.7178 0.2276 -2.8308
C -2.4110 -0.6946 -1.2517
C -2.9018 -0.9651 0.0210
C -2.2054 -0.5483 1.1611
C -2.7832 -0.8860 2.5104
C -1.0004 0.1807 1.0163
C -0.2368 0.6184 2.2458
H 0.0032 2.9560 -1.4257
H 1.5972 3.1879 -0.6923
H 0.1526 3.0955 0.3271
H 1.3515 0.8218 -1.3618
H 1.5163 0.9506 0.3530
H -0.5018 1.2853 -3.0043
H 0.1811 -0.3684 -3.0174
H -1.4694 -0.0678 -3.5711
H -2.9759 -1.0414 -2.1143
H -3.8359 -1.5146 0.1157
H -3.6388 -1.5646 2.4240
H -2.0370 -1.3909 3.1323
H -3.1302 0.0231 3.0116
H -0.8793 0.7072 3.1261
H 0.2059 1.6091 2.1139
H 0.5549 -0.1045 2.4663
