20
CC(=O)OCCOC(C)=O
C -2.9792 3.0704 0.1996
C -3.2582 1.7363 -0.4211
O -4.0528 0.9190 0.0204
O -2.4972 1.5720 -1.5366
C -2.6752 0.3209 -2.2274
C -1.8692 -0.7952 -1.5675
O -0.4693 -0.5006 -1.7193
C 0.3596 -1.4531 -1.2133
C 1.7878 -1.0442 -1.4042
O 0.0029 -2.4947 -0.6822
H -1.9299 3.1271 0.4997
H -3.6037 3.1939 1.0890
H -3.2212 3.8669 -0.5085
H -3.7393 0.0639 -2.2832
H -2.3201 0.4830 -3.2507
H -2.1003 -0.8665 -0.4994
H -2.0937 -1.7460 -2.0637
H 1.9769 -0.1028 -0.8822
H 2.0053 -0.9440 -2.4705
H 2.4439 -1.8124 -0.9849
