23
CNC1CCCCC1
C -2.2885 1.0426 1.1257
N -1.2587 0.1495 0.6064
C -0.3902 0.8059 -0.3863
C 0.3151 -0.2695 -1.2286
C 1.2532 -1.1625 -0.4096
C 1.8830 -0.4501 0.7878
C 2.0115 1.0475 0.5544
C 0.6643 1.7224 0.2697
H -2.9105 0.4954 1.8412
H -1.8641 1.8987 1.6572
H -2.9426 1.4062 0.3265
H -1.7206 -0.6503 0.1731
H -1.0128 1.4041 -1.0642
H -0.4162 -0.8949 -1.7560
H 0.8999 0.2310 -2.0122
H 2.0420 -1.5391 -1.0724
H 0.7119 -2.0466 -0.0512
H 1.2730 -0.6249 1.6826
H 2.8663 -0.8864 0.9980
H 2.4852 1.5256 1.4195
H 2.6835 1.2176 -0.2967
H 0.2821 2.1584 1.1997
H 0.8478 2.5799 -0.3910
