15
Oc1ccc(O)c(O)c1
O 0.9830 -2.0091 0.5556
C 1.0975 -0.7394 0.0687
C 1.9125 -0.5517 -1.0477
C 2.0666 0.7250 -1.5883
C 1.4009 1.7906 -1.0001
O 1.5496 3.0415 -1.5268
C 0.5871 1.5979 0.1160
O -0.0367 2.6974 0.6405
C 0.4266 0.3290 0.6630
H 0.3928 -2.0027 1.3263
H 2.4260 -1.3984 -1.4949
H 2.6976 0.8855 -2.4567
H 0.9985 3.6145 -0.9577
H -0.5646 2.4145 1.4064
H -0.2041 0.1732 1.5296
