18
O=COCc1ccccc1
O 2.8161 -0.3852 -0.8106
C 2.3584 0.5094 -1.5031
O 1.0591 0.7126 -1.8247
C 0.1298 -0.2147 -1.2519
C -0.4793 0.3841 -0.0110
C 0.0377 0.0732 1.2543
C -0.5143 0.6417 2.4032
C -1.5822 1.5310 2.2982
C -2.0960 1.8571 1.0443
C -1.5450 1.2900 -0.1061
H 2.9680 1.2935 -1.9785
H 0.5808 -1.1937 -1.0476
H -0.6543 -0.3962 -1.9963
H 0.8796 -0.6107 1.3498
H -0.1072 0.3931 3.3799
H -2.0101 1.9742 3.1934
H -2.9238 2.5565 0.9620
H -1.9490 1.5611 -1.0790
