20
COC(=O)CCC(=O)OC
C 2.8837 0.2360 0.6974
O 2.1224 -0.6821 -0.0886
C 0.8921 -0.9562 0.4220
O 0.4409 -0.5149 1.4694
C 0.1407 -1.8937 -0.4870
C -0.2423 -1.2134 -1.7890
C -1.1154 -0.0103 -1.5438
O -0.7548 1.1431 -1.7313
O -2.3394 -0.3944 -1.0925
C -3.2148 0.6946 -0.7961
H 2.3638 1.1959 0.7771
H 3.8399 0.4014 0.1935
H 3.0821 -0.1823 1.6891
H 0.7644 -2.7748 -0.6741
H -0.7487 -2.2447 0.0492
H -0.7765 -1.9048 -2.4499
H 0.6481 -0.8798 -2.3347
H -4.1569 0.2808 -0.4262
H -2.7856 1.3305 -0.0154
H -3.4224 1.2755 -1.7002
