16
SCc1ccccc1
S -2.7726 -3.1000 0.0385
C -2.1324 -2.0216 1.3482
C -1.5630 -0.7408 0.7974
C -2.3395 0.4268 0.7576
C -1.8134 1.6098 0.2356
C -0.5096 1.6375 -0.2557
C 0.2692 0.4824 -0.2280
C -0.2543 -0.7015 0.2938
H -3.5643 -2.1811 -0.5330
H -1.3651 -2.5621 1.9132
H -2.9446 -1.8046 2.0507
H -3.3604 0.4230 1.1333
H -2.4217 2.5103 0.2103
H -0.1014 2.5585 -0.6635
H 1.2842 0.5019 -0.6164
H 0.3630 -1.5976 0.3006
