14
O=C(O)CCC(=O)O
O -1.9806 1.9125 0.1868
C -1.2381 0.9436 0.1802
O -0.6396 0.5607 -0.9608
C -0.8421 0.1448 1.3936
C -0.2752 -1.2348 1.0806
C -1.3107 -2.1317 0.4620
O -2.4909 -1.8855 0.2846
O -0.7976 -3.3272 0.1127
H -1.0015 1.1805 -1.6299
H -0.0910 0.7289 1.9365
H -1.7295 0.0460 2.0296
H 0.0587 -1.7034 2.0130
H 0.5809 -1.1613 0.4014
H -1.5580 -3.8118 -0.2720
