24
CC1(C)CCCCC1
C -1.5115 1.2747 -1.3891
C -0.4891 0.1401 -1.1724
C -1.0883 -1.1471 -1.7707
C 0.8288 0.4657 -1.9054
C 1.5634 1.6808 -1.3344
C 1.4697 1.7972 0.1864
C 1.1038 0.4764 0.8448
C -0.2380 -0.0678 0.3454
H -1.6790 1.4549 -2.4571
H -1.1830 2.2175 -0.9417
H -2.4799 1.0222 -0.9417
H -2.0265 -1.4158 -1.2722
H -1.2997 -1.0267 -2.8393
H -0.3990 -1.9922 -1.6624
H 0.6488 0.6267 -2.9759
H 1.4980 -0.4035 -1.8424
H 2.6171 1.6217 -1.6336
H 1.1752 2.6013 -1.7871
H 0.7178 2.5509 0.4502
H 2.4220 2.1656 0.5852
H 1.8927 -0.2594 0.6436
H 1.0647 0.5981 1.9335
H -0.2769 -1.1340 0.6033
H -1.0454 0.4002 0.9236
