18
CC1CCCC1
C 1.2129 -0.2953 1.8833
C 1.0986 0.8990 0.9381
C -0.3534 1.2870 0.6674
C -0.8141 0.3486 -0.4440
C 0.4520 -0.1051 -1.1703
C 1.6168 0.5810 -0.4628
H 0.6818 -1.1757 1.5075
H 2.2629 -0.5725 2.0243
H 0.7967 -0.0471 2.8654
H 1.6498 1.7400 1.3735
H -0.3947 2.3222 0.3059
H -0.9912 1.2210 1.5543
H -1.5139 0.8488 -1.1212
H -1.3329 -0.5198 -0.0221
H 0.5502 -1.1946 -1.1023
H 0.4254 0.1538 -2.2337
H 1.8567 1.5153 -0.9856
H 2.5199 -0.0372 -0.4599
