21
CC(=O)OCc1ccccc1
C -0.1970 -3.7250 2.0836
C 0.2007 -2.2879 1.9369
O 1.3570 -1.9020 1.8382
O -0.9077 -1.5015 1.9368
C -0.6736 -0.0998 1.7578
C -0.8726 0.2617 0.3090
C -2.1603 0.4777 -0.2012
C -2.3434 0.7943 -1.5484
C -1.2432 0.8893 -2.3988
C 0.0402 0.6635 -1.9049
C 0.2253 0.3474 -0.5582
H -0.8391 -4.0189 1.2494
H 0.6989 -4.3523 2.0703
H -0.7115 -3.8719 3.0365
H 0.3125 0.2147 2.1211
H -1.4043 0.4364 2.3748
H -3.0284 0.3964 0.4492
H -3.3449 0.9629 -1.9354
H -1.3863 1.1339 -3.4480
H 0.8983 0.7288 -2.5688
H 1.2323 0.1610 -0.1878
