17
COC(=O)C1=CC=CC1
C -0.5391 -1.2874 -2.1895
O -0.2442 -1.3397 -0.7938
C 0.3649 -0.2247 -0.3197
O 0.6615 0.7658 -0.9704
C 0.6355 -0.3510 1.1150
C 0.3605 -1.3788 1.9338
C 0.8092 -1.0560 3.2645
C 1.3588 0.1673 3.2648
C 1.3047 0.7507 1.8788
H 0.3817 -1.1871 -2.7728
H -1.2273 -0.4642 -2.4058
H -1.0247 -2.2265 -2.4687
H -0.1185 -2.3082 1.6643
H 0.7086 -1.7124 4.1161
H 1.7801 0.6692 4.1230
H 2.3122 0.9511 1.5016
H 0.7115 1.6702 1.8668
