15
CCc1ccco1
C -3.4641 0.5524 0.8728
C -2.7783 0.3005 -0.4600
C -1.7724 1.3482 -0.7617
C -0.4096 1.4384 -0.5713
C -0.0205 2.7031 -1.0746
C -1.1685 3.3004 -1.5391
O -2.2376 2.4845 -1.3537
H -3.9855 1.5158 0.8745
H -4.1997 -0.2324 1.0756
H -2.7407 0.5612 1.6954
H -2.2919 -0.6816 -0.4390
H -3.5290 0.2670 -1.2581
H 0.2227 0.6844 -0.1237
H 0.9728 3.1280 -1.0969
H -1.3833 4.2521 -2.0044
