20
NC1CCCCC1
N -1.1105 1.1483 -0.5942
C -0.2082 0.3245 -1.4017
C 1.1631 1.0149 -1.5093
C 2.2714 0.0075 -1.7897
C 2.4039 -1.0112 -0.6544
C 1.0904 -1.2758 0.0868
C -0.1153 -1.1005 -0.8292
H -1.1294 2.0982 -0.9636
H -0.7518 1.2218 0.3572
H -0.6486 0.2517 -2.4036
H 1.1319 1.7720 -2.3022
H 1.4072 1.5500 -0.5815
H 3.2276 0.5230 -1.9340
H 2.0543 -0.5172 -2.7286
H 3.1513 -0.6651 0.0700
H 2.7925 -1.9494 -1.0687
H 1.0049 -0.5873 0.9367
H 1.1045 -2.2881 0.5064
H -0.0314 -1.8121 -1.6615
H -1.0353 -1.3724 -0.2972
