15
ClC1CCCC1
C 0.0187 0.5265 1.0457
C -1.4778 0.2802 0.9323
C -1.7011 0.1221 -0.5693
C -0.3642 -0.3477 -1.1494
C 0.5968 -0.4488 0.0320
H 0.2613 1.5589 0.7686
H -2.0721 1.0977 1.3521
H -1.7686 -0.6458 1.4442
H -1.9821 1.0824 -1.0168
H -2.5082 -0.5869 -0.7796
H 0.0017 0.3852 -1.8777
H -0.4598 -1.3068 -1.6685
H 0.5919 -1.4753 0.4199
H 1.6243 -0.2013 -0.2520
