19
NC(=O)Cc1ccccc1
N 2.9888 -1.0209 0.4919
C 1.9353 -0.9878 1.3612
O 2.0935 -1.2925 2.5397
C 0.5809 -0.6422 0.7706
C 0.5911 0.5755 -0.1238
C 0.3866 0.4493 -1.5049
C 0.4145 1.5758 -2.3283
C 0.6455 2.8363 -1.7804
C 0.8469 2.9730 -0.4082
C 0.8194 1.8487 0.4177
H 3.8994 -1.1556 0.9122
H 2.9550 -0.4818 -0.3645
H -0.1228 -0.4656 1.5933
H 0.2184 -1.5229 0.2273
H 0.2014 -0.5262 -1.9498
H 0.2518 1.4712 -3.3981
H 0.6639 3.7134 -2.4222
H 1.0227 3.9566 0.0200
H 0.9765 1.9716 1.4880
