21
COC(=O)Cc1ccccc1
C -2.8350 0.6229 3.7612
O -2.1362 1.4324 2.8143
C -1.2389 0.7403 2.0477
O -1.0321 -0.4611 2.1412
C -0.5671 1.7013 1.0900
C 0.4534 1.0598 0.1805
C 1.7949 0.9594 0.5751
C 2.7356 0.3587 -0.2632
C 2.3446 -0.1515 -1.4995
C 1.0120 -0.0653 -1.8977
C 0.0692 0.5348 -1.0615
H -3.4217 -0.1462 3.2491
H -2.1344 0.1704 4.4699
H -3.5209 1.2680 4.3171
H -0.0800 2.4894 1.6769
H -1.3429 2.1787 0.4792
H 2.1167 1.3434 1.5405
H 3.7731 0.2834 0.0515
H 3.0769 -0.6229 -2.1494
H 0.7053 -0.4714 -2.8580
H -0.9681 0.5844 -1.3849
