12
NCCN
N 1.5532 -1.1151 0.5873
C 0.7005 -2.1739 0.0436
C -0.7655 -1.7093 -0.0414
N -0.8851 -0.4532 -0.7953
H 1.1910 -0.2283 0.2211
H 2.4981 -1.2155 0.2246
H 0.7788 -3.0675 0.6705
H 1.0536 -2.4360 -0.9606
H -1.1623 -1.5518 0.9677
H -1.3719 -2.4845 -0.5218
H -0.6045 -0.6146 -1.7616
H -1.8666 -0.1795 -0.8242
