20
O=[N+]([O-])C1CCCCC1
O -0.4483 -2.0387 1.4488
N -0.6587 -1.1055 2.2342
O -0.7131 -1.2074 3.4667
C -0.8637 0.2829 1.6583
C 0.4560 0.7783 1.0678
C 0.8024 0.1876 -0.3010
C -0.4053 -0.0580 -1.2057
C -1.6533 0.6773 -0.7398
C -2.0443 0.2695 0.6804
H -1.1235 0.9083 2.5225
H 1.2895 0.6077 1.7605
H 0.3811 1.8681 0.9513
H 1.3497 -0.7543 -0.1746
H 1.5016 0.8672 -0.8042
H -0.6166 -1.1341 -1.2408
H -0.1596 0.2363 -2.2327
H -1.4796 1.7598 -0.7799
H -2.4857 0.4685 -1.4215
H -2.8068 0.9752 1.0348
H -2.5426 -0.7077 0.6518
