16
NC(=O)CCC(N)=O
N -1.6546 -1.6743 -2.0300
C -1.6552 -0.8213 -0.9651
O -2.4162 0.1384 -0.9244
C -0.7096 -1.2070 0.1510
C -0.4179 -0.0148 1.0526
C 0.4699 0.9887 0.3505
N 0.4527 2.2402 0.8941
O 1.2021 0.7202 -0.5948
H -2.2004 -1.3715 -2.8272
H -0.8348 -2.2322 -2.2301
H -1.1984 -1.9956 0.7344
H 0.2132 -1.6222 -0.2692
H -1.3436 0.4714 1.3800
H 0.1179 -0.3549 1.9463
H -0.3570 2.5548 1.4124
H 0.9565 2.9459 0.3713
