16
N#CC1CCCC1
N -0.2359 -2.7358 0.2612
C 0.1127 -1.7560 0.7760
C 0.5557 -0.5128 1.4308
C 1.7040 0.1489 0.6732
C 1.0363 0.9457 -0.4459
C -0.3957 1.2122 0.0168
C -0.5259 0.5639 1.3937
H 0.8471 -0.7379 2.4625
H 2.2311 0.8428 1.3402
H 2.4408 -0.5615 0.2838
H 1.5777 1.8754 -0.6485
H 1.0250 0.3651 -1.3756
H -1.1043 0.7614 -0.6876
H -0.6162 2.2836 0.0603
H -0.3192 1.3174 2.1642
H -1.5359 0.1785 1.5687
