16
Cc1ccc(O)cc1
C -0.9585 0.0234 -1.4025
C -0.6744 0.2410 0.0542
C -0.3679 1.5215 0.5328
C -0.1346 1.7295 1.8931
C -0.2176 0.6612 2.7773
O 0.0172 0.9087 4.0975
C -0.5346 -0.6151 2.3242
C -0.7680 -0.8223 0.9625
H -2.0247 0.1688 -1.6015
H -0.6758 -0.9893 -1.7085
H -0.3842 0.7212 -2.0210
H -0.3080 2.3654 -0.1506
H 0.1081 2.7220 2.2612
H -0.0741 0.0753 4.5872
H -0.6076 -1.4540 3.0085
H -1.0232 -1.8200 0.6123
