12
COCC(=O)O
C -1.7566 2.2372 -2.4409
O -2.4324 1.0061 -2.6516
C -1.6891 -0.0974 -2.1485
C -2.3972 -1.4266 -2.3650
O -3.4758 -1.6327 -2.8954
O -1.6776 -2.4649 -1.8813
H -2.3739 3.0433 -2.8465
H -0.7935 2.2399 -2.9602
H -1.6084 2.4153 -1.3714
H -1.5393 0.0304 -1.0707
H -0.7228 -0.1454 -2.6625
H -2.2413 -3.2417 -2.0846
