16
Cc1cccc(O)c1
C -1.2536 1.3616 -1.3351
C -0.4991 0.4570 -0.4071
C -1.1792 -0.4747 0.3877
C -0.4726 -1.3383 1.2284
C 0.9205 -1.2866 1.2753
C 1.5954 -0.3711 0.4746
O 2.9570 -0.2902 0.4821
C 0.9001 0.4931 -0.3656
H -0.7230 2.3095 -1.4739
H -2.2426 1.5999 -0.9298
H -1.3773 0.8791 -2.3095
H -2.2650 -0.5325 0.3570
H -1.0111 -2.0535 1.8446
H 1.4559 -1.9639 1.9324
H 3.3002 -0.9467 1.1098
H 1.4542 1.1932 -0.9853
