18
O=C(O)Cc1ccccc1
O 0.6103 2.4809 -1.0747
C 1.2156 1.9663 -1.9990
O 1.6755 2.7371 -3.0100
C 1.5563 0.5116 -2.2099
C 1.0674 -0.4002 -1.1105
C -0.2081 -0.9782 -1.1800
C -0.6626 -1.8135 -0.1582
C 0.1494 -2.0747 0.9437
C 1.4153 -1.4985 1.0272
C 1.8725 -0.6628 0.0069
H 1.3932 3.6413 -2.7555
H 2.6458 0.4212 -2.2963
H 1.1234 0.1905 -3.1648
H -0.8590 -0.7787 -2.0283
H -1.6532 -2.2563 -0.2196
H -0.2070 -2.7221 1.7404
H 2.0455 -1.6957 1.8905
H 2.8599 -0.2151 0.0932
