17
O=CCc1ccccc1
O -0.1217 1.7341 -2.6760
C -0.2598 2.4408 -1.6834
C -0.4336 1.9567 -0.2636
C -0.4310 0.4597 -0.0985
C 0.7694 -0.2300 0.1221
C 0.7710 -1.6180 0.2706
C -0.4242 -2.3302 0.1943
C -1.6218 -1.6559 -0.0353
C -1.6261 -0.2680 -0.1841
H -0.2634 3.5395 -1.7917
H -1.3749 2.3711 0.1164
H 0.3684 2.3988 0.3393
H 1.7134 0.3075 0.1728
H 1.7068 -2.1447 0.4382
H -0.4211 -3.4112 0.3043
H -2.5527 -2.2122 -0.1064
H -2.5688 0.2396 -0.3747
