15
BrCc1ccccc1
C -0.3999 -1.3464 2.4840
C -0.9398 -0.8324 1.1832
C -1.8584 -1.5908 0.4427
C -2.3544 -1.1149 -0.7723
C -1.9349 0.1203 -1.2619
C -1.0168 0.8796 -0.5395
C -0.5195 0.4057 0.6757
H -0.1288 -0.5331 3.1636
H -1.1135 -2.0015 2.9922
H -2.1902 -2.5612 0.8060
H -3.0652 -1.7106 -1.3391
H -2.3193 0.4887 -2.2094
H -0.6841 1.8400 -0.9247
H 0.2032 1.0077 1.2226
