19
CC1=C(C)CCC1
C 3.5680 1.1800 0.8830
C 2.8101 0.1888 0.0699
C 1.7105 0.3664 -0.6800
C 0.9228 1.6073 -0.9207
C 1.3021 -0.9059 -1.3622
C 2.1222 -1.9664 -0.6341
C 3.2978 -1.2282 -0.0013
H 3.5891 0.8697 1.9326
H 3.1313 2.1809 0.8422
H 4.5997 1.2527 0.5243
H 0.9145 1.8479 -1.9886
H 1.3260 2.4725 -0.3888
H -0.1116 1.4674 -0.5909
H 1.5568 -0.8653 -2.4267
H 0.2311 -1.1059 -1.2599
H 2.4497 -2.7678 -1.3042
H 1.5116 -2.4312 0.1512
H 4.1933 -1.2912 -0.6288
H 3.5265 -1.6382 0.9873
