15
CC(C)(O)C(=O)O
C -0.6988 -1.1658 0.4898
C -0.6645 0.0752 -0.3959
C -1.2392 1.2917 0.3229
O -1.4964 -0.1923 -1.5321
C 0.7663 0.3811 -0.8567
O 1.0995 0.5871 -2.0156
O 1.6705 0.4576 0.1376
H -0.1367 -1.0235 1.4186
H -0.2694 -2.0271 -0.0353
H -1.7294 -1.4360 0.7465
H -1.2260 2.1710 -0.3317
H -0.6716 1.5366 1.2268
H -2.2855 1.1241 0.6023
H -1.1435 0.3416 -2.2708
H 2.5143 0.6630 -0.3177
