30
Cc1c(C)c2ccccc2c2ccccc12
C -2.1043 -1.8689 0.2290
C -0.8627 -1.0776 -0.1342
C 0.3033 -1.7572 -0.5718
C 0.2617 -3.2561 -0.7976
C 1.5172 -1.0419 -0.7685
C 2.7373 -1.6994 -1.0771
C 3.9328 -1.0135 -1.2807
C 3.9470 0.3613 -1.1764
C 2.7668 1.0361 -0.8627
C 1.5264 0.3731 -0.6450
C 0.3127 1.0728 -0.3178
C 0.2384 2.4910 -0.2250
C -0.9373 3.1739 0.0883
C -2.0939 2.4591 0.3179
C -2.0619 1.0685 0.2389
C -0.8797 0.3432 -0.0656
H -2.6395 -1.4161 1.0694
H -1.8623 -2.8750 0.5844
H -2.7713 -1.9421 -0.6351
H 0.5926 -3.7827 0.1025
H 0.8841 -3.5533 -1.6473
H -0.7388 -3.6038 -1.0719
H 2.7853 -2.7829 -1.1499
H 4.8431 -1.5581 -1.5143
H 4.8686 0.9156 -1.3301
H 2.8454 2.1162 -0.7848
H 1.1119 3.1103 -0.4049
H -0.9404 4.2588 0.1436
H -3.0216 2.9726 0.5534
H -3.0048 0.5548 0.4075
