24
Cc1cc(C)c2ccccc2c1
C -2.4088 -0.9475 0.6838
C -1.0392 -0.4202 0.3746
C -0.8118 0.3280 -0.7824
C 0.4594 0.8551 -1.0697
C 0.6373 1.6458 -2.3398
C 1.5355 0.6380 -0.1685
C 2.8423 1.1321 -0.3823
C 3.8727 0.8995 0.5318
C 3.6234 0.1670 1.6845
C 2.3442 -0.3331 1.9223
C 1.2976 -0.1088 1.0119
C 0.0162 -0.6212 1.2688
H -2.9737 -0.2073 1.2587
H -2.3491 -1.8753 1.2625
H -2.9573 -1.1748 -0.2364
H -1.6358 0.5031 -1.4720
H -0.2959 1.7103 -2.9096
H 0.9512 2.6691 -2.1099
H 1.3812 1.1672 -2.9848
H 3.0757 1.7106 -1.2726
H 4.8675 1.2926 0.3396
H 4.4212 -0.0164 2.3989
H 2.1682 -0.9050 2.8309
H -0.1638 -1.1880 2.1806
