31
OCCCCCCCCCO
O -1.5012 -0.4542 4.8876
C -1.7348 0.2796 3.6921
C -1.8627 -0.6814 2.5169
C -2.2296 0.0048 1.2008
C -1.2344 1.0580 0.7030
C 0.2119 0.5820 0.5286
C 0.3605 -0.5451 -0.4960
C 1.8058 -1.0259 -0.6658
C 2.8052 0.0237 -1.1537
C 2.4471 0.6310 -2.5041
O 3.4894 1.5002 -2.9293
H -0.6776 -0.9570 4.7673
H -0.9058 0.9804 3.5572
H -2.6554 0.8560 3.8259
H -2.6336 -1.4262 2.7531
H -0.9361 -1.2572 2.4073
H -2.3633 -0.7634 0.4302
H -3.2093 0.4862 1.3147
H -1.2384 1.9117 1.3914
H -1.5968 1.4464 -0.2573
H 0.6239 0.2655 1.4933
H 0.8039 1.4472 0.2086
H -0.0462 -0.2261 -1.4623
H -0.2359 -1.4087 -0.1801
H 1.8080 -1.8679 -1.3695
H 2.1617 -1.4257 0.2919
H 2.9229 0.8204 -0.4098
H 3.7965 -0.4421 -1.2279
H 2.3287 -0.1484 -3.2630
H 1.5210 1.2111 -2.4569
H 3.5795 2.1998 -2.2600
