30
O=C(c1ccccc1)C1CCCCC1
O 0.5232 -0.8941 1.2354
C 0.4888 -0.0141 0.3756
C 0.5600 -0.4219 -1.0668
C 0.5423 0.4982 -2.1227
C 0.6120 0.0538 -3.4471
C 0.7003 -1.3085 -3.7271
C 0.7191 -2.2317 -2.6849
C 0.6494 -1.7910 -1.3616
C 0.3722 1.4715 0.7425
C 0.8270 1.7343 2.1867
C -0.1668 1.2829 3.2605
C -1.6268 1.3540 2.8220
C -1.8338 2.3788 1.7193
C -1.0457 2.0039 0.4643
H 0.4726 1.5673 -1.9517
H 0.5970 0.7732 -4.2627
H 0.7544 -1.6509 -4.7576
H 0.7880 -3.2955 -2.8986
H 0.6653 -2.5257 -0.5581
H 1.0895 2.0061 0.1068
H 0.9840 2.8156 2.3003
H 1.8014 1.2678 2.3774
H -0.0212 1.9093 4.1496
H 0.0594 0.2591 3.5809
H -2.2588 1.5915 3.6852
H -1.9484 0.3680 2.4637
H -2.8986 2.4557 1.4715
H -1.5214 3.3696 2.0720
H -0.9788 2.8935 -0.1746
H -1.6299 1.2695 -0.1041
