16
C1=NCc2ccccc21
C 2.5383 -0.8249 -0.7737
N 2.1738 -2.0738 -0.8165
C 0.9651 -2.1671 0.0652
C 0.7408 -0.7885 0.5818
C -0.2204 -0.2769 1.4311
C -0.1648 1.0887 1.7349
C 0.8404 1.9122 1.1903
C 1.8064 1.3824 0.3327
C 1.7198 0.0344 0.0566
H 3.4077 -0.4414 -1.3279
H 1.1667 -2.8674 0.8816
H 0.1116 -2.5111 -0.5272
H -0.9957 -0.9090 1.8520
H -0.9083 1.5217 2.4012
H 0.8610 2.9702 1.4424
H 2.5850 2.0039 -0.0932
