23
O=C(C1=CC=CC1)c1ccccc1
O 2.0536 2.3914 -0.0843
C 1.3001 1.5135 -0.4952
C 0.6892 0.5520 0.4451
C -0.3894 -0.2329 0.2901
C -0.6246 -0.9649 1.5090
C 0.2949 -0.6192 2.4212
C 1.2330 0.4009 1.8374
C 0.9904 1.4315 -1.9412
C 0.7678 2.6235 -2.6403
C 0.4907 2.5894 -4.0076
C 0.4505 1.3679 -4.6802
C 0.6965 0.1798 -3.9912
C 0.9740 0.2089 -2.6230
H -1.0243 -0.3116 -0.5794
H -1.4286 -1.6721 1.6489
H 0.3611 -1.0033 3.4280
H 1.1834 1.3396 2.3978
H 2.2605 0.0244 1.8286
H 0.8119 3.5784 -2.1205
H 0.3138 3.5157 -4.5486
H 0.2392 1.3434 -5.7468
H 0.6827 -0.7683 -4.5234
H 1.1938 -0.7220 -2.1071
