17
OCCSCCO
O -0.0870 -3.7271 -0.6951
C -0.6609 -2.4355 -0.5032
C -0.6732 -1.6601 -1.8169
S -1.4824 -0.0321 -1.7048
C -0.4259 0.8314 -0.4798
C 1.0586 0.9200 -0.8326
O 1.2598 1.6636 -2.0266
H 0.8239 -3.6080 -1.0135
H -1.6773 -2.5812 -0.1237
H -0.0743 -1.9274 0.2675
H -1.2155 -2.2453 -2.5686
H 0.3405 -1.5502 -2.2154
H -0.8324 1.8454 -0.3998
H -0.5568 0.3526 0.4951
H 1.5871 1.4390 -0.0258
H 1.5135 -0.0680 -0.9447
H 2.2171 1.7038 -2.1909
