16
NCCCC(=O)O
N 1.7673 -1.8117 1.5431
C 0.9957 -1.0974 2.5486
C -0.0189 -0.1286 1.9353
C -1.0104 -0.7964 0.9823
C -0.4318 -1.0225 -0.3898
O 0.4651 -0.3936 -0.9283
O -1.0747 -2.0030 -1.0556
H 2.1792 -1.1471 0.8836
H 2.5471 -2.2949 1.9871
H 1.6781 -0.5342 3.1948
H 0.4771 -1.8261 3.1810
H -0.5841 0.3259 2.7586
H 0.5093 0.6902 1.4312
H -1.3492 -1.7508 1.4003
H -1.8855 -0.1494 0.8542
H -0.5999 -2.0521 -1.9109
