18
OCCNCCO
O -1.0256 -1.8296 2.6899
C -1.0603 -0.4086 2.7787
C -1.3585 0.2198 1.4102
N -0.4887 -0.2210 0.3074
C 0.9346 0.1113 0.4724
C 1.2016 1.6190 0.3716
O 0.5741 2.1410 -0.7973
H -0.2416 -2.0600 2.1643
H -1.8479 -0.1369 3.4885
H -0.1078 -0.0585 3.1887
H -1.3578 1.3118 1.4922
H -2.3789 -0.0630 1.1245
H -0.5981 -1.2294 0.1895
H 1.3512 -0.2986 1.3976
H 1.4636 -0.3760 -0.3555
H 0.8103 2.1550 1.2414
H 2.2756 1.8156 0.3031
H -0.2363 1.6020 -0.9082
