26
O=C(Nc1ccccc1)c1ccccc1
O 2.2039 0.4109 -1.3392
C 1.1277 0.4551 -0.7560
N 0.7032 1.4216 0.1380
C 1.3811 2.6018 0.5093
C 0.7905 3.3931 1.5040
C 1.3952 4.5808 1.9244
C 2.5961 4.9903 1.3521
C 3.1888 4.2126 0.3604
C 2.5834 3.0238 -0.0603
C 0.1605 -0.6577 -0.9753
C -1.2222 -0.4334 -1.0225
C -2.0945 -1.5040 -1.2309
C -1.5906 -2.7941 -1.4004
C -0.2142 -3.0178 -1.3725
C 0.6617 -1.9512 -1.1659
H -0.1566 1.2373 0.6371
H -0.1462 3.0969 1.9682
H 0.9287 5.1846 2.6983
H 3.0701 5.9129 1.6762
H 4.1259 4.5273 -0.0921
H 3.0768 2.4515 -0.8396
H -1.6317 0.5689 -0.9315
H -3.1674 -1.3322 -1.2741
H -2.2713 -3.6258 -1.5671
H 0.1783 -4.0214 -1.5174
H 1.7355 -2.1279 -1.1527
