14
c1ccc2ocnc2c1
C -1.8242 -0.0573 -0.0070
C -1.3174 -1.2843 0.4416
C -0.1402 -1.8260 -0.0899
C 0.4771 -1.0692 -1.0781
O 1.6251 -1.3651 -1.7549
C 1.7808 -0.3042 -2.5972
N 0.8532 0.6258 -2.5214
C 0.0094 0.1479 -1.5499
C -1.1692 0.6765 -1.0084
H -2.7416 0.3357 0.4272
H -1.8494 -1.8289 1.2199
H 0.2668 -2.7719 0.2435
H 2.6467 -0.3279 -3.2437
H -1.5582 1.6261 -1.3580
