21
O=C(c1ccccc1)c1ccco1
O 1.4219 1.4806 -0.5524
C 0.5830 0.6189 -0.2855
C -0.0541 0.6824 1.0612
C -0.3955 -0.4681 1.7836
C -0.9701 -0.3546 3.0522
C -1.1947 0.9041 3.6092
C -0.8395 2.0532 2.9045
C -0.2654 1.9440 1.6367
C 0.2086 -0.4142 -1.2310
C 0.7766 -0.7565 -2.4458
C 0.0036 -1.8144 -2.9798
C -0.9978 -2.0495 -2.0693
O -0.8869 -1.2062 -1.0116
H -0.2092 -1.4602 1.3808
H -1.2375 -1.2497 3.6086
H -1.6402 0.9893 4.5975
H -1.0048 3.0343 3.3428
H 0.0175 2.8460 1.0972
H 1.6467 -0.2848 -2.8830
H 0.1529 -2.3347 -3.9155
H -1.8274 -2.7421 -2.0304
