27
O=C(Cc1ccccc1)c1ccccc1
O -0.3240 2.3916 1.4603
C 0.5124 1.6846 0.8947
C 0.9085 0.3390 1.4744
C 0.2591 -0.8435 0.7965
C -1.1157 -0.8528 0.5201
C -1.7095 -1.9590 -0.0898
C -0.9400 -3.0730 -0.4174
C 0.4227 -3.0852 -0.1286
C 1.0187 -1.9797 0.4810
C 1.1407 2.1698 -0.3742
C 0.8077 3.4558 -0.8260
C 1.3653 3.9631 -2.0014
C 2.2596 3.1893 -2.7368
C 2.5954 1.9096 -2.2987
C 2.0395 1.3992 -1.1213
H 0.6231 0.3300 2.5343
H 2.0019 0.2600 1.4674
H -1.7387 0.0018 0.7813
H -2.7752 -1.9516 -0.3038
H -1.4046 -3.9344 -0.8898
H 1.0207 -3.9593 -0.3732
H 2.0816 -2.0153 0.7095
H 0.1086 4.0718 -0.2626
H 1.0987 4.9608 -2.3412
H 2.6924 3.5824 -3.6536
H 3.2894 1.3045 -2.8776
H 2.3213 0.3956 -0.8216
