29
O=C(c1ccccc1)N1CCCCC1
O 0.6731 -2.0647 -0.9416
C 0.4772 -0.8531 -1.0075
C 1.4715 0.0363 -0.3660
C 1.8393 -0.2054 0.9610
C 2.7941 0.6073 1.5728
C 3.3894 1.6464 0.8550
C 3.0403 1.8712 -0.4780
C 2.0857 1.0616 -1.0946
N -0.6139 -0.2806 -1.6675
C -1.5521 -1.1810 -2.3312
C -2.7508 -1.4626 -1.4271
C -3.4094 -0.1573 -0.9740
C -2.3860 0.7999 -0.3581
C -1.1919 1.0114 -1.2911
H 1.3867 -1.0269 1.5113
H 3.0811 0.4244 2.6053
H 4.1379 2.2745 1.3326
H 3.5197 2.6703 -1.0379
H 1.8289 1.2224 -2.1383
H -1.0602 -2.1185 -2.6109
H -1.8788 -0.6947 -3.2581
H -2.4224 -2.0247 -0.5441
H -3.4809 -2.0844 -1.9563
H -3.8854 0.3269 -1.8357
H -4.2015 -0.3725 -0.2483
H -2.0355 0.3840 0.5948
H -2.8619 1.7616 -0.1374
H -0.4664 1.6578 -0.7947
H -1.5092 1.5138 -2.2122
