14
Cc1ccccn1
C -0.3280 0.2588 0.3889
C 0.5303 -0.9389 0.6651
C 1.8983 -0.7853 0.8735
C 2.6698 -1.9158 1.1278
C 2.0580 -3.1624 1.1670
C 0.6925 -3.2261 0.9489
N -0.0812 -2.1467 0.7000
H -1.3735 -0.0345 0.2494
H -0.2798 0.9600 1.2278
H 0.0088 0.7633 -0.5220
H 2.3586 0.1966 0.8390
H 3.7391 -1.8235 1.2938
H 2.6298 -4.0622 1.3624
H 0.1663 -4.1760 0.9689
