26
c1cc2ccc3cccc4ccc(c1)c2c34
C 1.9508 -1.2368 2.1227
C 0.9111 -1.9628 1.5426
C -0.0201 -1.3322 0.7043
C -1.0714 -2.0453 0.1125
C -1.9911 -1.4028 -0.7204
C -1.8835 -0.0304 -0.9830
C -2.7987 0.6290 -1.8168
C -2.6755 1.9954 -2.0666
C -1.6358 2.7214 -1.4865
C -0.7046 2.0908 -0.6483
C 0.3467 2.8040 -0.0564
C 1.2664 2.1614 0.7764
C 1.1587 0.7890 1.0391
C 2.0740 0.1296 1.8728
C 0.1040 0.0535 0.4503
C -0.8287 0.7051 -0.3943
H 2.6663 -1.7366 2.7705
H 0.8328 -3.0276 1.7502
H -1.1845 -3.1116 0.2951
H -2.7950 -1.9865 -1.1633
H -3.6166 0.0809 -2.2789
H -3.3910 2.4952 -2.7145
H -1.5575 3.7862 -1.6941
H 0.4598 3.8703 -0.2390
H 2.0703 2.7451 1.2194
H 2.8919 0.6777 2.3349
