17
Cc1ccnc(C)c1
C 1.2134 1.2349 0.3913
C 0.5084 0.3080 -0.5515
C 1.1285 -0.1256 -1.7228
C 0.4466 -1.0080 -2.5447
N -0.7874 -1.4866 -2.2778
C -1.3767 -1.0724 -1.1323
C -2.7431 -1.6099 -0.8291
C -0.7627 -0.1869 -0.2487
H 0.4969 1.8703 0.9224
H 1.7869 0.6589 1.1240
H 1.8963 1.8981 -0.1501
H 2.1219 0.2131 -1.9963
H 0.8906 -1.3671 -3.4686
H -3.4631 -0.7896 -0.7500
H -3.0813 -2.2849 -1.6219
H -2.7291 -2.1690 0.1116
H -1.2707 0.1125 0.6631
