14
Cc1cccnc1
C 0.5668 -2.3444 1.2543
C 0.4244 -1.3797 0.1211
C 0.6903 -0.0192 0.2861
C 0.5789 0.8419 -0.8017
C 0.2140 0.3084 -2.0264
N -0.0371 -1.0022 -2.2290
C 0.0787 -1.8147 -1.1542
H 0.3409 -1.8602 2.2102
H -0.1283 -3.1833 1.1433
H 1.5887 -2.7343 1.2893
H 0.9829 0.3744 1.2561
H 0.7749 1.9029 -0.6976
H 0.1138 0.9397 -2.9044
H -0.1218 -2.8635 -1.3569
