20
Cc1ccc(C)c(C)n1
C 1.9894 -1.4033 3.2198
C 1.2503 -0.4744 2.3047
C 0.4644 0.5428 2.8279
C -0.2077 1.3866 1.9497
C -0.0844 1.2016 0.5697
C -0.8070 2.1089 -0.3804
C 0.7277 0.1526 0.1247
C 0.9220 -0.1249 -1.3381
N 1.3871 -0.6756 0.9742
H 2.6918 -0.8409 3.8429
H 1.2853 -1.9387 3.8643
H 2.5583 -2.1434 2.6479
H 0.3730 0.6808 3.9000
H -0.8260 2.1865 2.3490
H -1.5026 1.5353 -1.0012
H -0.0937 2.6351 -1.0227
H -1.3903 2.8666 0.1537
H 1.5883 -0.9814 -1.4860
H -0.0354 -0.3601 -1.8130
H 1.3734 0.7395 -1.8345
