17
c1ccc2cnccc2c1
C -2.1915 0.0783 1.4776
C -2.1400 -1.2827 1.1852
C -0.9332 -1.8678 0.8004
C 0.2355 -1.0912 0.7051
C 1.4713 -1.6212 0.3253
N 2.6161 -0.9060 0.2227
C 2.5309 0.4084 0.5128
C 1.3600 1.0417 0.8997
C 0.1861 0.2855 1.0003
C -1.0369 0.8589 1.3862
H -3.1318 0.5342 1.7774
H -3.0397 -1.8887 1.2568
H -0.9077 -2.9315 0.5751
H 1.5793 -2.6755 0.0840
H 3.4611 0.9624 0.4237
H 1.3693 2.1042 1.1172
H -1.0990 1.9196 1.6189
