21
c1ccc2c(c1)sc1ccccc12
C -3.5289 1.3201 -2.0253
C -3.1682 2.2429 -1.0554
C -1.9462 2.1197 -0.3873
C -1.0569 1.0540 -0.6874
C -1.4471 0.1411 -1.6678
C -2.6780 0.2605 -2.3446
S -0.2609 -1.0751 -1.9027
C 0.7870 -0.4175 -0.7149
C 2.0462 -0.9206 -0.3296
C 2.7697 -0.2547 0.6612
C 2.2566 0.8866 1.2584
C 1.0072 1.3813 0.8724
C 0.2447 0.7286 -0.1322
H -4.4803 1.4199 -2.5423
H -3.8358 3.0657 -0.8118
H -1.6782 2.8516 0.3705
H -2.9624 -0.4616 -3.1049
H 2.4499 -1.8148 -0.7964
H 3.7419 -0.6358 0.9647
H 2.8256 1.4002 2.0295
H 0.6191 2.2772 1.3504
