17
Cc1cncc(C)c1
C -1.0886 -0.3459 -2.7723
C -0.2598 -0.4593 -1.5331
C 0.7661 0.4411 -1.2701
N 1.5671 0.3826 -0.1836
C 1.3452 -0.6337 0.6786
C 0.3692 -1.6077 0.5027
C 0.1648 -2.6885 1.5154
C -0.4483 -1.5045 -0.6255
H -0.6228 -0.9074 -3.5880
H -2.0973 -0.7377 -2.6047
H -1.1937 0.7003 -3.0784
H 0.9800 1.2651 -1.9456
H 2.0013 -0.6430 1.5450
H -0.2177 -3.5993 1.0428
H -0.5491 -2.3594 2.2767
H 1.1088 -2.9493 2.0054
H -1.2323 -2.2385 -0.7974
