14
Cc1ccncc1
C 0.5828 -1.5639 0.4551
C 0.1191 -0.6121 -0.6051
C -1.2019 -0.6346 -1.0563
C -1.5758 0.2438 -2.0623
N -0.7332 1.1223 -2.6459
C 0.5426 1.1172 -2.2046
C 1.0117 0.2782 -1.2050
H 1.3979 -1.1276 1.0421
H 0.9351 -2.4929 -0.0034
H -0.2292 -1.7985 1.1514
H -1.9309 -1.3196 -0.6367
H -2.5948 0.2614 -2.4379
H 1.2033 1.8275 -2.6931
H 2.0530 0.3231 -0.9044
