32
O=C(CCC(=O)c1ccccc1)c1ccccc1
O -1.3891 0.2927 -2.4473
C -1.7364 0.1424 -1.2755
C -1.9126 1.3379 -0.3605
C -0.6448 2.1822 -0.3310
C 0.4497 1.4748 0.4430
O 0.2574 1.0923 1.5976
C 1.7855 1.2612 -0.1805
C 1.9560 1.1170 -1.5614
C 3.2332 0.9100 -2.0899
C 4.3401 0.8395 -1.2447
C 4.1741 0.9673 0.1330
C 2.9000 1.1727 0.6650
C -2.0124 -1.2311 -0.7697
C -2.4184 -2.2037 -1.6937
C -2.6845 -3.5081 -1.2736
C -2.5369 -3.8498 0.0692
C -2.1173 -2.8910 0.9907
C -1.8513 -1.5835 0.5744
H -2.2234 1.0487 0.6459
H -2.7376 1.9308 -0.7741
H -0.8440 3.1232 0.1962
H -0.3275 2.4617 -1.3381
H 1.1138 1.1342 -2.2480
H 3.3618 0.7936 -3.1636
H 5.3314 0.6751 -1.6601
H 5.0346 0.9027 0.7942
H 2.7793 1.2646 1.7428
H -2.5301 -1.9479 -2.7458
H -3.0020 -4.2568 -1.9951
H -2.7396 -4.8665 0.3971
H -1.9865 -3.1630 2.0356
H -1.4956 -0.8722 1.3150
