26
c1cc2ccc3cccc4ccc(c1)c2c34
C -4.3437 1.0662 0.3191
C -3.5580 1.1892 -0.8265
C -2.1644 1.0468 -0.7559
C -1.3586 1.1671 -1.8963
C 0.0285 1.0225 -1.8098
C 0.6459 0.7540 -0.5806
C 2.0369 0.6062 -0.4774
C 2.6336 0.3391 0.7543
C 1.8480 0.2160 1.8999
C 0.4543 0.3585 1.8293
C -0.3514 0.2382 2.9697
C -1.7386 0.3827 2.8832
C -2.3559 0.6513 1.6540
C -3.7470 0.7991 1.5508
C -1.5584 0.7759 0.4928
C -0.1517 0.6293 0.5806
H -5.4227 1.1787 0.2517
H -4.0429 1.3977 -1.7775
H -1.8050 1.3752 -2.8661
H 0.6239 1.1221 -2.7146
H 2.6675 0.6984 -1.3589
H 3.7126 0.2266 0.8217
H 2.3328 0.0075 2.8509
H 0.0949 0.0301 3.9395
H -2.3340 0.2832 3.7880
H -4.3776 0.7069 2.4323
