24
c1ccc2c(c1)ccc1ccccc12
C 0.3734 2.8610 0.4873
C -0.2768 2.5696 -0.7018
C -0.5773 1.2429 -1.0251
C -0.2397 0.1603 -0.1733
C 0.4250 0.4881 1.0366
C 0.7216 1.8256 1.3504
C 0.7904 -0.5237 1.9281
C 0.5111 -1.8581 1.6469
C -0.1418 -2.2201 0.4660
C -0.4089 -3.5765 0.2122
C -1.0574 -3.9758 -0.9532
C -1.4468 -3.0212 -1.8797
C -1.1867 -1.6686 -1.6386
C -0.5288 -1.2213 -0.4644
H 0.6100 3.8896 0.7449
H -0.5534 3.3700 -1.3831
H -1.0873 1.0700 -1.9683
H 1.2315 2.0727 2.2794
H 1.3004 -0.2834 2.8586
H 0.8122 -2.6159 2.3671
H -0.1104 -4.3394 0.9285
H -1.2564 -5.0285 -1.1341
H -1.9538 -3.3215 -2.7929
H -1.5126 -0.9623 -2.3966
