17
C1=Cc2ccccc2C1
C 0.9064 -2.2025 0.5484
C 0.3162 -1.6490 1.6202
C -0.5170 -0.5559 1.1495
C -1.3206 0.3149 1.8625
C -2.0272 1.2906 1.1531
C -1.9207 1.3801 -0.2457
C -1.1065 0.4960 -0.9579
C -0.4117 -0.4657 -0.2447
C 0.5195 -1.5261 -0.7458
H 1.5866 -3.0412 0.5909
H 0.4223 -1.9408 2.6521
H -1.4035 0.2468 2.9417
H -2.6666 1.9886 1.6883
H -2.4791 2.1467 -0.7779
H -1.0240 0.5647 -2.0374
H 1.3949 -1.0900 -1.2353
H 0.0073 -2.2245 -1.4135
