34
C1CCC(C2CCCCC2)CC1
C -0.5158 -2.3171 -2.9349
C -0.8193 -3.3152 -1.8272
C -0.8789 -2.6291 -0.4598
C 0.2180 -1.5542 -0.2297
C -0.3902 -0.1159 -0.1480
C 0.6921 0.9868 -0.1609
C 0.1562 2.3152 0.3593
C -0.2746 2.2153 1.8211
C -0.6903 0.8034 2.2286
C -1.3349 0.0447 1.0734
C 1.3314 -1.7070 -1.2822
C 0.8192 -1.6057 -2.7185
H -1.3206 -1.5726 -2.9784
H -0.5115 -2.8218 -3.9078
H -0.0525 -4.0997 -1.8162
H -1.7733 -3.8173 -2.0254
H -0.7943 -3.4000 0.3164
H -1.8796 -2.1973 -0.3448
H 0.6749 -1.7557 0.7496
H -1.0106 0.0283 -1.0435
H 1.5520 0.6868 0.4514
H 1.0618 1.1298 -1.1827
H 0.9146 3.0992 0.2528
H -0.6996 2.6240 -0.2543
H 0.5428 2.5437 2.4744
H -1.1027 2.9134 1.9937
H -1.3809 0.8570 3.0780
H 0.1892 0.2480 2.5781
H -1.6894 -0.9225 1.4436
H -2.2304 0.5938 0.7531
H 1.7993 -2.6920 -1.1469
H 2.1417 -0.9875 -1.1260
H 1.5750 -2.0329 -3.3889
H 0.7156 -0.5543 -3.0116
