24
C/C=C\C1Cc2cccnc2N1
C 0.7612 3.4443 3.0949
C -0.0698 3.4060 1.8535
C -0.0146 2.5118 0.8517
C 0.8825 1.3016 0.7317
C 0.1175 0.0010 0.3541
C 0.3184 -0.0235 -1.1223
C -0.3050 -0.7769 -2.0960
C 0.0669 -0.5404 -3.4157
C 1.0306 0.4340 -3.6774
N 1.6497 1.1756 -2.7280
C 1.2867 0.9103 -1.4715
N 1.8420 1.5513 -0.3408
H 1.2612 4.4151 3.1711
H 0.1199 3.3221 3.9732
H 1.5329 2.6726 3.1270
H -0.7906 4.2184 1.7632
H -0.6961 2.6652 0.0143
H 1.4207 1.1265 1.6678
H -0.9390 0.0342 0.6370
H 0.5961 -0.8757 0.8041
H -1.0591 -1.5150 -1.8482
H -0.3843 -1.0960 -4.2306
H 1.3400 0.6470 -4.6971
H 2.1350 2.4929 -0.5700
