17
O=C(O)CCCC(=O)O
O 0.1123 -1.0205 -0.8375
C -1.1067 -1.0131 -0.8476
O -1.8035 -2.1654 -0.8276
C -2.0105 0.1900 -0.9218
C -1.3131 1.5006 -0.5453
C -1.2235 1.7381 0.9614
C -0.2562 0.8122 1.6394
O -0.5491 -0.2070 2.2423
O 1.0236 1.1962 1.4909
H -1.1157 -2.8596 -0.7533
H -2.3595 0.2565 -1.9588
H -2.8810 0.0289 -0.2764
H -1.8968 2.3250 -0.9736
H -0.3156 1.5510 -0.9977
H -0.9051 2.7679 1.1628
H -2.2041 1.6245 1.4377
H 1.5422 0.4600 1.8779
