17
Cc1ccc(C)nc1
C 3.5619 1.1905 -1.6298
C 2.5297 1.1550 -0.5492
C 1.2031 0.8231 -0.8206
C 0.2643 0.8345 0.2085
C 0.6752 1.1896 1.4894
C -0.3115 1.2114 2.6176
N 1.9531 1.5300 1.7752
C 2.8434 1.5101 0.7570
H 3.5969 2.1859 -2.0832
H 4.5530 0.9483 -1.2319
H 3.3368 0.4553 -2.4095
H 0.8935 0.5549 -1.8273
H -0.7697 0.5726 0.0095
H -0.7483 0.2178 2.7573
H 0.1735 1.5050 3.5542
H -1.1101 1.9297 2.4076
H 3.8532 1.7997 1.0355
