19
c1coc(Cc2ccco2)c1
C 1.6041 -1.6704 0.0543
C 1.2881 -1.1329 1.2794
O 0.6792 0.0706 1.1281
C 0.6095 0.3188 -0.2125
C -0.0335 1.5971 -0.6217
C 0.9482 2.5951 -1.1270
C 1.6724 2.7095 -2.2972
C 2.4319 3.8988 -2.1835
C 2.1193 4.4371 -0.9579
O 1.2158 3.6570 -0.3121
C 1.1622 -0.7354 -0.9125
H 2.0928 -2.6187 -0.1183
H 1.4213 -1.4628 2.3001
H -0.5937 2.0193 0.2215
H -0.7699 1.3908 -1.4079
H 1.6564 2.0168 -3.1267
H 3.1224 4.3135 -2.9039
H 2.4355 5.3229 -0.4250
H 1.2399 -0.8153 -1.9876
