23
c1ccc(Sc2ccccc2)cc1
C 1.1475 2.4629 -2.5739
C 2.0330 2.4633 -1.4974
C 2.1279 1.3420 -0.6701
C 1.3329 0.2164 -0.9108
S 1.4868 -1.2053 0.1569
C -0.1978 -1.4527 0.6915
C -0.9227 -0.4315 1.3158
C -2.2367 -0.6533 1.7340
C -2.8307 -1.8989 1.5376
C -2.1113 -2.9244 0.9264
C -0.7974 -2.7030 0.5074
C 0.4544 0.2195 -1.9999
C 0.3594 1.3413 -2.8265
H 1.0745 3.3352 -3.2185
H 2.6523 3.3350 -1.3025
H 2.8260 1.3547 0.1636
H -0.4717 0.5438 1.4815
H -2.7945 0.1462 2.2149
H -3.8529 -2.0715 1.8647
H -2.5711 -3.8980 0.7776
H -0.2467 -3.5135 0.0358
H -0.1629 -0.6496 -2.2138
H -0.3281 1.3373 -3.6684
