17
Cc1cccc(C)n1
C -1.3159 2.9680 0.0337
C -1.2235 1.4744 -0.0549
C -2.1159 0.7657 -0.8520
C -2.0034 -0.6188 -0.9125
C -1.0078 -1.2542 -0.1790
C -0.1514 -0.4797 0.5962
C 0.9332 -1.1317 1.3997
N -0.2487 0.8695 0.6651
H -1.1768 3.4148 -0.9556
H -2.2929 3.2636 0.4284
H -0.5442 3.3676 0.6996
H -2.8863 1.2795 -1.4171
H -2.6865 -1.1982 -1.5267
H -0.9041 -2.3335 -0.2133
H 1.5140 -0.3842 1.9497
H 0.5003 -1.8278 2.1247
H 1.6164 -1.6766 0.7408
